data_acs
_audit_creation_date              2019-12-31
_audit_creation_method            'Pymatgen'
_symmetry_space_group_name_H-M    'P1'
_symmetry_Int_Tables_number       1
loop_
_symmetry_equiv_pos_as_xyz
  x,y,z
_cell_length_a                    28.284
_cell_length_b                    28.284
_cell_length_c                    23.0942
_cell_angle_alpha                 90.0
_cell_angle_beta                 90.0
_cell_angle_gamma                 120.0
loop_
_atom_site_label
_atom_site_type_symbol
_atom_site_fract_x
_atom_site_fract_y
_atom_site_fract_z
V1     V     0.1667   0.3333   0.375
V2     V     0.1667   0.3333   0.875
V3     V     0.1667   0.8333   0.375
V4     V     0.1667   0.8333   0.875
V5     V     0.6667   0.3333   0.375
V6     V     0.6667   0.3333   0.875
V7     V     0.6667   0.8333   0.375
V8     V     0.6667   0.8333   0.875
V9     V     0.3333   0.1667   0.125
V10     V     0.3333   0.1667   0.625
V11     V     0.3333   0.6667   0.125
V12     V     0.3333   0.6667   0.625
V13     V     0.8333   0.1667   0.125
V14     V     0.8333   0.1667   0.625
V15     V     0.8333   0.6667   0.125
V16     V     0.8333   0.6667   0.625
loop_
_geom_bond_atom_site_label_1
_geom_bond_atom_site_label_2
_geom_bond_distance
_geom_bond_site_symmetry_2
_ccdc_geom_bond_type
V1     V9    10.0   .     S
V1     V10    10.0   .     S
V1     V12    10.0   .     S
V1     V11    10.0   .     S
V1     V13    10.0   1_455     S
V1     V14    10.0   1_455     S
V2     V10    10.0   .     S
V2     V9    10.0   1_556     S
V2     V11    10.0   1_556     S
V2     V12    10.0   .     S
V2     V14    10.0   1_455     S
V2     V13    10.0   1_456     S
V3     V11    10.0   .     S
V3     V12    10.0   .     S
V3     V10    10.0   1_565     S
V3     V9    10.0   1_565     S
V3     V15    10.0   1_455     S
V3     V16    10.0   1_455     S
V4     V12    10.0   .     S
V4     V11    10.0   1_556     S
V4     V9    10.0   1_566     S
V4     V10    10.0   1_565     S
V4     V16    10.0   1_455     S
V4     V15    10.0   1_456     S
V5     V13    10.0   .     S
V5     V14    10.0   .     S
V5     V16    10.0   .     S
V5     V15    10.0   .     S
V5     V9    10.0   .     S
V5     V10    10.0   .     S
V6     V14    10.0   .     S
V6     V13    10.0   1_556     S
V6     V15    10.0   1_556     S
V6     V16    10.0   .     S
V6     V10    10.0   .     S
V6     V9    10.0   1_556     S
V7     V15    10.0   .     S
V7     V16    10.0   .     S
V7     V14    10.0   1_565     S
V7     V13    10.0   1_565     S
V7     V11    10.0   .     S
V7     V12    10.0   .     S
V8     V16    10.0   .     S
V8     V15    10.0   1_556     S
V8     V13    10.0   1_566     S
V8     V14    10.0   1_565     S
V8     V12    10.0   .     S
V8     V11    10.0   1_556     S
V9     V2    10.0   1_554     S
V9     V4    10.0   1_544     S
V9     V3    10.0   1_545     S
V9     V6    10.0   1_554     S
V10     V3    10.0   1_545     S
V10     V4    10.0   1_545     S
V11     V4    10.0   1_554     S
V11     V2    10.0   1_554     S
V11     V8    10.0   1_554     S
V13     V6    10.0   1_554     S
V13     V8    10.0   1_544     S
V13     V7    10.0   1_545     S
V13     V1    10.0   1_655     S
V13     V2    10.0   1_654     S
V14     V7    10.0   1_545     S
V14     V8    10.0   1_545     S
V14     V2    10.0   1_655     S
V14     V1    10.0   1_655     S
V15     V8    10.0   1_554     S
V15     V6    10.0   1_554     S
V15     V3    10.0   1_655     S
V15     V4    10.0   1_654     S
V16     V4    10.0   1_655     S
V16     V3    10.0   1_655     S
