data_bem
_audit_creation_date              2019-12-31
_audit_creation_method            'Pymatgen'
_symmetry_space_group_name_H-M    'P1'
_symmetry_Int_Tables_number       1
loop_
_symmetry_equiv_pos_as_xyz
  x,y,z
_cell_length_a                    47.263
_cell_length_b                    47.263
_cell_length_c                    47.263
_cell_angle_alpha                 90.0
_cell_angle_beta                 90.0
_cell_angle_gamma                 90.0
loop_
_atom_site_label
_atom_site_type_symbol
_atom_site_fract_x
_atom_site_fract_y
_atom_site_fract_z
V1     V     0.1056   0.2694   0.1875
V2     V     0.1056   0.2694   0.6875
V3     V     0.1056   0.7694   0.1875
V4     V     0.1056   0.7694   0.6875
V5     V     0.6056   0.2694   0.1875
V6     V     0.6056   0.2694   0.6875
V7     V     0.6056   0.7694   0.1875
V8     V     0.6056   0.7694   0.6875
V9     V     0.1875   0.1056   0.2694
V10     V     0.1875   0.1056   0.7694
V11     V     0.1875   0.6056   0.2694
V12     V     0.1875   0.6056   0.7694
V13     V     0.6875   0.1056   0.2694
V14     V     0.6875   0.1056   0.7694
V15     V     0.6875   0.6056   0.2694
V16     V     0.6875   0.6056   0.7694
V17     V     0.2694   0.1875   0.1056
V18     V     0.2694   0.1875   0.6056
V19     V     0.2694   0.6875   0.1056
V20     V     0.2694   0.6875   0.6056
V21     V     0.7694   0.1875   0.1056
V22     V     0.7694   0.1875   0.6056
V23     V     0.7694   0.6875   0.1056
V24     V     0.7694   0.6875   0.6056
Er25     Er     0.4652   0.2152   0.0348
Er26     Er     0.4652   0.2152   0.5348
Er27     Er     0.4652   0.7152   0.0348
Er28     Er     0.4652   0.7152   0.5348
Er29     Er     0.9652   0.2152   0.0348
Er30     Er     0.9652   0.2152   0.5348
Er31     Er     0.9652   0.7152   0.0348
Er32     Er     0.9652   0.7152   0.5348
Er33     Er     0.0902   0.0902   0.0902
Er34     Er     0.0902   0.0902   0.5902
Er35     Er     0.0902   0.5902   0.0902
Er36     Er     0.0902   0.5902   0.5902
Er37     Er     0.5902   0.0902   0.0902
Er38     Er     0.5902   0.0902   0.5902
Er39     Er     0.5902   0.5902   0.0902
Er40     Er     0.5902   0.5902   0.5902
Er41     Er     0.0348   0.4652   0.2152
Er42     Er     0.0348   0.4652   0.7152
Er43     Er     0.0348   0.9652   0.2152
Er44     Er     0.0348   0.9652   0.7152
Er45     Er     0.5348   0.4652   0.2152
Er46     Er     0.5348   0.4652   0.7152
Er47     Er     0.5348   0.9652   0.2152
Er48     Er     0.5348   0.9652   0.7152
Er49     Er     0.3402   0.1598   0.4098
Er50     Er     0.3402   0.1598   0.9098
Er51     Er     0.3402   0.6598   0.4098
Er52     Er     0.3402   0.6598   0.9098
Er53     Er     0.8402   0.1598   0.4098
Er54     Er     0.8402   0.1598   0.9098
Er55     Er     0.8402   0.6598   0.4098
Er56     Er     0.8402   0.6598   0.9098
Er57     Er     0.2848   0.2848   0.2848
Er58     Er     0.2848   0.2848   0.7848
Er59     Er     0.2848   0.7848   0.2848
Er60     Er     0.2848   0.7848   0.7848
Er61     Er     0.7848   0.2848   0.2848
Er62     Er     0.7848   0.2848   0.7848
Er63     Er     0.7848   0.7848   0.2848
Er64     Er     0.7848   0.7848   0.7848
Er65     Er     0.4098   0.3402   0.1598
Er66     Er     0.4098   0.3402   0.6598
Er67     Er     0.4098   0.8402   0.1598
Er68     Er     0.4098   0.8402   0.6598
Er69     Er     0.9098   0.3402   0.1598
Er70     Er     0.9098   0.3402   0.6598
Er71     Er     0.9098   0.8402   0.1598
Er72     Er     0.9098   0.8402   0.6598
Er73     Er     0.1598   0.4098   0.3402
Er74     Er     0.1598   0.4098   0.8402
Er75     Er     0.1598   0.9098   0.3402
Er76     Er     0.1598   0.9098   0.8402
Er77     Er     0.6598   0.4098   0.3402
Er78     Er     0.6598   0.4098   0.8402
Er79     Er     0.6598   0.9098   0.3402
Er80     Er     0.6598   0.9098   0.8402
Er81     Er     0.2152   0.0348   0.4652
Er82     Er     0.2152   0.0348   0.9652
Er83     Er     0.2152   0.5348   0.4652
Er84     Er     0.2152   0.5348   0.9652
Er85     Er     0.7152   0.0348   0.4652
Er86     Er     0.7152   0.0348   0.9652
Er87     Er     0.7152   0.5348   0.4652
Er88     Er     0.7152   0.5348   0.9652
V89     V     0.4375   0.1444   0.2306
V90     V     0.4375   0.1444   0.7306
V91     V     0.4375   0.6444   0.2306
V92     V     0.4375   0.6444   0.7306
V93     V     0.9375   0.1444   0.2306
V94     V     0.9375   0.1444   0.7306
V95     V     0.9375   0.6444   0.2306
V96     V     0.9375   0.6444   0.7306
V97     V     0.3556   0.4806   0.3125
V98     V     0.3556   0.4806   0.8125
V99     V     0.3556   0.9806   0.3125
V100     V     0.3556   0.9806   0.8125
V101     V     0.8556   0.4806   0.3125
V102     V     0.8556   0.4806   0.8125
V103     V     0.8556   0.9806   0.3125
V104     V     0.8556   0.9806   0.8125
V105     V     0.0194   0.0625   0.3944
V106     V     0.0194   0.0625   0.8944
V107     V     0.0194   0.5625   0.3944
V108     V     0.0194   0.5625   0.8944
V109     V     0.5194   0.0625   0.3944
V110     V     0.5194   0.0625   0.8944
V111     V     0.5194   0.5625   0.3944
V112     V     0.5194   0.5625   0.8944
V113     V     0.1444   0.2306   0.4375
V114     V     0.1444   0.2306   0.9375
V115     V     0.1444   0.7306   0.4375
V116     V     0.1444   0.7306   0.9375
V117     V     0.6444   0.2306   0.4375
V118     V     0.6444   0.2306   0.9375
V119     V     0.6444   0.7306   0.4375
V120     V     0.6444   0.7306   0.9375
V121     V     0.4806   0.3125   0.3556
V122     V     0.4806   0.3125   0.8556
V123     V     0.4806   0.8125   0.3556
V124     V     0.4806   0.8125   0.8556
V125     V     0.9806   0.3125   0.3556
V126     V     0.9806   0.3125   0.8556
V127     V     0.9806   0.8125   0.3556
V128     V     0.9806   0.8125   0.8556
V129     V     0.0625   0.3944   0.0194
V130     V     0.0625   0.3944   0.5194
V131     V     0.0625   0.8944   0.0194
V132     V     0.0625   0.8944   0.5194
V133     V     0.5625   0.3944   0.0194
V134     V     0.5625   0.3944   0.5194
V135     V     0.5625   0.8944   0.0194
V136     V     0.5625   0.8944   0.5194
V137     V     0.2306   0.4375   0.1444
V138     V     0.2306   0.4375   0.6444
V139     V     0.2306   0.9375   0.1444
V140     V     0.2306   0.9375   0.6444
V141     V     0.7306   0.4375   0.1444
V142     V     0.7306   0.4375   0.6444
V143     V     0.7306   0.9375   0.1444
V144     V     0.7306   0.9375   0.6444
V145     V     0.3125   0.3556   0.4806
V146     V     0.3125   0.3556   0.9806
V147     V     0.3125   0.8556   0.4806
V148     V     0.3125   0.8556   0.9806
V149     V     0.8125   0.3556   0.4806
V150     V     0.8125   0.3556   0.9806
V151     V     0.8125   0.8556   0.4806
V152     V     0.8125   0.8556   0.9806
V153     V     0.3944   0.0194   0.0625
V154     V     0.3944   0.0194   0.5625
V155     V     0.3944   0.5194   0.0625
V156     V     0.3944   0.5194   0.5625
V157     V     0.8944   0.0194   0.0625
V158     V     0.8944   0.0194   0.5625
V159     V     0.8944   0.5194   0.0625
V160     V     0.8944   0.5194   0.5625
loop_
_geom_bond_atom_site_label_1
_geom_bond_atom_site_label_2
_geom_bond_distance
_geom_bond_site_symmetry_2
_ccdc_geom_bond_type
V1     V114    12.098   1_554     S
V1     V113    12.098   .     S
V1     Er57    9.668   .     S
V1     Er33    9.668   .     S
V1     Er29    10.133   1_455     S
V1     Er73    10.133   .     S
V1     Er69    9.923   1_455     S
V1     Er41    9.923   .     S
V1     V93    10.107   1_455     S
V1     V129    10.107   .     S
V1     V137    10.107   .     S
V1     V125    10.107   1_455     S
V1     V9    9.484   .     S
V1     V17    9.484   .     S
V2     V113    12.098   .     S
V2     V114    12.098   .     S
V2     Er58    9.668   .     S
V2     Er34    9.668   .     S
V2     Er30    10.133   1_455     S
V2     Er74    10.133   .     S
V2     Er70    9.923   1_455     S
V2     Er42    9.923   .     S
V2     V94    10.107   1_455     S
V2     V130    10.107   .     S
V2     V138    10.107   .     S
V2     V126    10.107   1_455     S
V2     V10    9.484   .     S
V2     V18    9.484   .     S
V3     V116    12.098   1_554     S
V3     V115    12.098   .     S
V3     Er59    9.668   .     S
V3     Er35    9.668   .     S
V3     Er31    10.133   1_455     S
V3     Er75    10.133   .     S
V3     Er71    9.923   1_455     S
V3     Er43    9.923   .     S
V3     V95    10.107   1_455     S
V3     V131    10.107   .     S
V3     V139    10.107   .     S
V3     V127    10.107   1_455     S
V3     V11    9.484   .     S
V3     V19    9.484   .     S
V4     V115    12.098   .     S
V4     V116    12.098   .     S
V4     Er60    9.668   .     S
V4     Er36    9.668   .     S
V4     Er32    10.133   1_455     S
V4     Er76    10.133   .     S
V4     Er72    9.923   1_455     S
V4     Er44    9.923   .     S
V4     V96    10.107   1_455     S
V4     V132    10.107   .     S
V4     V140    10.107   .     S
V4     V128    10.107   1_455     S
V4     V12    9.484   .     S
V4     V20    9.484   .     S
V5     V118    12.098   1_554     S
V5     V117    12.098   .     S
V5     Er61    9.668   .     S
V5     Er37    9.668   .     S
V5     Er25    10.133   .     S
V5     Er77    10.133   .     S
V5     Er65    9.923   .     S
V5     Er45    9.923   .     S
V5     V89    10.107   .     S
V5     V133    10.107   .     S
V5     V141    10.107   .     S
V5     V121    10.107   .     S
V5     V13    9.484   .     S
V5     V21    9.484   .     S
V6     V117    12.098   .     S
V6     V118    12.098   .     S
V6     Er62    9.668   .     S
V6     Er38    9.668   .     S
V6     Er26    10.133   .     S
V6     Er78    10.133   .     S
V6     Er66    9.923   .     S
V6     Er46    9.923   .     S
V6     V90    10.107   .     S
V6     V134    10.107   .     S
V6     V142    10.107   .     S
V6     V122    10.107   .     S
V6     V14    9.484   .     S
V6     V22    9.484   .     S
V7     V120    12.098   1_554     S
V7     V119    12.098   .     S
V7     Er63    9.668   .     S
V7     Er39    9.668   .     S
V7     Er27    10.133   .     S
V7     Er79    10.133   .     S
V7     Er67    9.923   .     S
V7     Er47    9.923   .     S
V7     V91    10.107   .     S
V7     V135    10.107   .     S
V7     V143    10.107   .     S
V7     V123    10.107   .     S
V7     V15    9.484   .     S
V7     V23    9.484   .     S
V8     V119    12.098   .     S
V8     V120    12.098   .     S
V8     Er64    9.668   .     S
V8     Er40    9.668   .     S
V8     Er28    10.133   .     S
V8     Er80    10.133   .     S
V8     Er68    9.923   .     S
V8     Er48    9.923   .     S
V8     V92    10.107   .     S
V8     V136    10.107   .     S
V8     V144    10.107   .     S
V8     V124    10.107   .     S
V8     V16    9.484   .     S
V8     V24    9.484   .     S
V9     V93    12.098   1_455     S
V9     V89    12.098   .     S
V9     Er57    9.668   .     S
V9     Er33    9.668   .     S
V9     Er43    10.133   1_545     S
V9     Er49    10.133   .     S
V9     Er75    9.923   1_545     S
V9     Er81    9.923   .     S
V9     V139    10.107   1_545     S
V9     V105    10.107   .     S
V9     V99    10.107   1_545     S
V9     V113    10.107   .     S
V9     V17    9.484   .     S
V10     V94    12.098   1_455     S
V10     V90    12.098   .     S
V10     Er58    9.668   .     S
V10     Er34    9.668   .     S
V10     Er44    10.133   1_545     S
V10     Er50    10.133   .     S
V10     Er76    9.923   1_545     S
V10     Er82    9.923   .     S
V10     V140    10.107   1_545     S
V10     V106    10.107   .     S
V10     V100    10.107   1_545     S
V10     V114    10.107   .     S
V10     V18    9.484   .     S
V11     V95    12.098   1_455     S
V11     V91    12.098   .     S
V11     Er59    9.668   .     S
V11     Er35    9.668   .     S
V11     Er41    10.133   .     S
V11     Er51    10.133   .     S
V11     Er73    9.923   .     S
V11     Er83    9.923   .     S
V11     V137    10.107   .     S
V11     V107    10.107   .     S
V11     V97    10.107   .     S
V11     V115    10.107   .     S
V11     V19    9.484   .     S
V12     V96    12.098   1_455     S
V12     V92    12.098   .     S
V12     Er60    9.668   .     S
V12     Er36    9.668   .     S
V12     Er42    10.133   .     S
V12     Er52    10.133   .     S
V12     Er74    9.923   .     S
V12     Er84    9.923   .     S
V12     V138    10.107   .     S
V12     V108    10.107   .     S
V12     V98    10.107   .     S
V12     V116    10.107   .     S
V12     V20    9.484   .     S
V13     V89    12.098   .     S
V13     V93    12.098   .     S
V13     Er61    9.668   .     S
V13     Er37    9.668   .     S
V13     Er47    10.133   1_545     S
V13     Er53    10.133   .     S
V13     Er79    9.923   1_545     S
V13     Er85    9.923   .     S
V13     V143    10.107   1_545     S
V13     V109    10.107   .     S
V13     V103    10.107   1_545     S
V13     V117    10.107   .     S
V13     V21    9.484   .     S
V14     V90    12.098   .     S
V14     V94    12.098   .     S
V14     Er62    9.668   .     S
V14     Er38    9.668   .     S
V14     Er48    10.133   1_545     S
V14     Er54    10.133   .     S
V14     Er80    9.923   1_545     S
V14     Er86    9.923   .     S
V14     V144    10.107   1_545     S
V14     V110    10.107   .     S
V14     V104    10.107   1_545     S
V14     V118    10.107   .     S
V14     V22    9.484   .     S
V15     V91    12.098   .     S
V15     V95    12.098   .     S
V15     Er63    9.668   .     S
V15     Er39    9.668   .     S
V15     Er45    10.133   .     S
V15     Er55    10.133   .     S
V15     Er77    9.923   .     S
V15     Er87    9.923   .     S
V15     V141    10.107   .     S
V15     V111    10.107   .     S
V15     V101    10.107   .     S
V15     V119    10.107   .     S
V15     V23    9.484   .     S
V16     V92    12.098   .     S
V16     V96    12.098   .     S
V16     Er64    9.668   .     S
V16     Er40    9.668   .     S
V16     Er46    10.133   .     S
V16     Er56    10.133   .     S
V16     Er78    9.923   .     S
V16     Er88    9.923   .     S
V16     V142    10.107   .     S
V16     V112    10.107   .     S
V16     V102    10.107   .     S
V16     V120    10.107   .     S
V16     V24    9.484   .     S
V17     V139    12.098   1_545     S
V17     V137    12.098   .     S
V17     Er57    9.668   .     S
V17     Er33    9.668   .     S
V17     Er82    10.133   1_554     S
V17     Er65    10.133   .     S
V17     Er50    9.923   1_554     S
V17     Er25    9.923   .     S
V17     V153    10.107   .     S
V17     V114    10.107   1_554     S
V17     V89    10.107   .     S
V17     V146    10.107   1_554     S
V18     V140    12.098   1_545     S
V18     V138    12.098   .     S
V18     Er58    9.668   .     S
V18     Er34    9.668   .     S
V18     Er81    10.133   .     S
V18     Er66    10.133   .     S
V18     Er49    9.923   .     S
V18     Er26    9.923   .     S
V18     V154    10.107   .     S
V18     V113    10.107   .     S
V18     V90    10.107   .     S
V18     V145    10.107   .     S
V19     V137    12.098   .     S
V19     V139    12.098   .     S
V19     Er59    9.668   .     S
V19     Er35    9.668   .     S
V19     Er84    10.133   1_554     S
V19     Er67    10.133   .     S
V19     Er52    9.923   1_554     S
V19     Er27    9.923   .     S
V19     V155    10.107   .     S
V19     V116    10.107   1_554     S
V19     V91    10.107   .     S
V19     V148    10.107   1_554     S
V20     V138    12.098   .     S
V20     V140    12.098   .     S
V20     Er60    9.668   .     S
V20     Er36    9.668   .     S
V20     Er83    10.133   .     S
V20     Er68    10.133   .     S
V20     Er51    9.923   .     S
V20     Er28    9.923   .     S
V20     V156    10.107   .     S
V20     V115    10.107   .     S
V20     V92    10.107   .     S
V20     V147    10.107   .     S
V21     V143    12.098   1_545     S
V21     V141    12.098   .     S
V21     Er61    9.668   .     S
V21     Er37    9.668   .     S
V21     Er86    10.133   1_554     S
V21     Er69    10.133   .     S
V21     Er54    9.923   1_554     S
V21     Er29    9.923   .     S
V21     V157    10.107   .     S
V21     V118    10.107   1_554     S
V21     V93    10.107   .     S
V21     V150    10.107   1_554     S
V22     V144    12.098   1_545     S
V22     V142    12.098   .     S
V22     Er62    9.668   .     S
V22     Er38    9.668   .     S
V22     Er85    10.133   .     S
V22     Er70    10.133   .     S
V22     Er53    9.923   .     S
V22     Er30    9.923   .     S
V22     V158    10.107   .     S
V22     V117    10.107   .     S
V22     V94    10.107   .     S
V22     V149    10.107   .     S
V23     V141    12.098   .     S
V23     V143    12.098   .     S
V23     Er63    9.668   .     S
V23     Er39    9.668   .     S
V23     Er88    10.133   1_554     S
V23     Er71    10.133   .     S
V23     Er56    9.923   1_554     S
V23     Er31    9.923   .     S
V23     V159    10.107   .     S
V23     V120    10.107   1_554     S
V23     V95    10.107   .     S
V23     V152    10.107   1_554     S
V24     V142    12.098   .     S
V24     V144    12.098   .     S
V24     Er64    9.668   .     S
V24     Er40    9.668   .     S
V24     Er87    10.133   .     S
V24     Er72    10.133   .     S
V24     Er55    9.923   .     S
V24     Er32    9.923   .     S
V24     V160    10.107   .     S
V24     V119    10.107   .     S
V24     V96    10.107   .     S
V24     V151    10.107   .     S
Er25     V122    9.668   1_554     S
Er25     V118    9.668   1_554     S
Er25     V133    9.668   .     S
Er25     V146    10.133   1_554     S
Er25     V110    10.133   1_554     S
Er25     V153    9.923   .     S
Er25     V89    9.923   .     S
Er25     Er37    8.755   .     S
Er25     Er50    8.755   1_554     S
Er25     Er65    8.755   .     S
Er26     V121    9.668   .     S
Er26     V117    9.668   .     S
Er26     V134    9.668   .     S
Er26     V145    10.133   .     S
Er26     V109    10.133   .     S
Er26     V154    9.923   .     S
Er26     V90    9.923   .     S
Er26     Er38    8.755   .     S
Er26     Er49    8.755   .     S
Er26     Er66    8.755   .     S
Er27     V124    9.668   1_554     S
Er27     V120    9.668   1_554     S
Er27     V135    9.668   .     S
Er27     V148    10.133   1_554     S
Er27     V112    10.133   1_554     S
Er27     V155    9.923   .     S
Er27     V91    9.923   .     S
Er27     Er39    8.755   .     S
Er27     Er52    8.755   1_554     S
Er27     Er67    8.755   .     S
Er28     V123    9.668   .     S
Er28     V119    9.668   .     S
Er28     V136    9.668   .     S
Er28     V147    10.133   .     S
Er28     V111    10.133   .     S
Er28     V156    9.923   .     S
Er28     V92    9.923   .     S
Er28     Er40    8.755   .     S
Er28     Er51    8.755   .     S
Er28     Er68    8.755   .     S
Er29     V126    9.668   1_554     S
Er29     V114    9.668   1_654     S
Er29     V129    9.668   1_655     S
Er29     V150    10.133   1_554     S
Er29     V106    10.133   1_654     S
Er29     V1    10.133   1_655     S
Er29     V157    9.923   .     S
Er29     V93    9.923   .     S
Er29     Er33    8.755   1_655     S
Er29     Er54    8.755   1_554     S
Er29     Er69    8.755   .     S
Er30     V125    9.668   .     S
Er30     V113    9.668   1_655     S
Er30     V130    9.668   1_655     S
Er30     V149    10.133   .     S
Er30     V105    10.133   1_655     S
Er30     V2    10.133   1_655     S
Er30     V158    9.923   .     S
Er30     V94    9.923   .     S
Er30     Er34    8.755   1_655     S
Er30     Er53    8.755   .     S
Er30     Er70    8.755   .     S
Er31     V128    9.668   1_554     S
Er31     V116    9.668   1_654     S
Er31     V131    9.668   1_655     S
Er31     V152    10.133   1_554     S
Er31     V108    10.133   1_654     S
Er31     V3    10.133   1_655     S
Er31     V159    9.923   .     S
Er31     V95    9.923   .     S
Er31     Er35    8.755   1_655     S
Er31     Er56    8.755   1_554     S
Er31     Er71    8.755   .     S
Er32     V127    9.668   .     S
Er32     V115    9.668   1_655     S
Er32     V132    9.668   1_655     S
Er32     V151    10.133   .     S
Er32     V107    10.133   1_655     S
Er32     V4    10.133   1_655     S
Er32     V160    9.923   .     S
Er32     V96    9.923   .     S
Er32     Er36    8.755   1_655     S
Er32     Er55    8.755   .     S
Er32     Er72    8.755   .     S
Er33     V139    10.133   1_545     S
Er33     V93    10.133   1_455     S
Er33     V114    10.133   1_554     S
Er33     V157    9.923   1_455     S
Er33     V106    9.923   1_554     S
Er33     V131    9.923   1_545     S
Er33     Er29    8.755   1_455     S
Er33     Er82    8.755   1_554     S
Er33     Er43    8.755   1_545     S
Er34     V140    10.133   1_545     S
Er34     V94    10.133   1_455     S
Er34     V113    10.133   .     S
Er34     V158    9.923   1_455     S
Er34     V105    9.923   .     S
Er34     V132    9.923   1_545     S
Er34     Er30    8.755   1_455     S
Er34     Er81    8.755   .     S
Er34     Er44    8.755   1_545     S
Er35     V137    10.133   .     S
Er35     V95    10.133   1_455     S
Er35     V116    10.133   1_554     S
Er35     V159    9.923   1_455     S
Er35     V108    9.923   1_554     S
Er35     V129    9.923   .     S
Er35     Er31    8.755   1_455     S
Er35     Er84    8.755   1_554     S
Er35     Er41    8.755   .     S
Er36     V138    10.133   .     S
Er36     V96    10.133   1_455     S
Er36     V115    10.133   .     S
Er36     V160    9.923   1_455     S
Er36     V107    9.923   .     S
Er36     V130    9.923   .     S
Er36     Er32    8.755   1_455     S
Er36     Er83    8.755   .     S
Er36     Er42    8.755   .     S
Er37     V143    10.133   1_545     S
Er37     V89    10.133   .     S
Er37     V118    10.133   1_554     S
Er37     V153    9.923   .     S
Er37     V110    9.923   1_554     S
Er37     V135    9.923   1_545     S
Er37     Er86    8.755   1_554     S
Er37     Er47    8.755   1_545     S
Er38     V144    10.133   1_545     S
Er38     V90    10.133   .     S
Er38     V117    10.133   .     S
Er38     V154    9.923   .     S
Er38     V109    9.923   .     S
Er38     V136    9.923   1_545     S
Er38     Er85    8.755   .     S
Er38     Er48    8.755   1_545     S
Er39     V141    10.133   .     S
Er39     V91    10.133   .     S
Er39     V120    10.133   1_554     S
Er39     V155    9.923   .     S
Er39     V112    9.923   1_554     S
Er39     V133    9.923   .     S
Er39     Er88    8.755   1_554     S
Er39     Er45    8.755   .     S
Er40     V142    10.133   .     S
Er40     V92    10.133   .     S
Er40     V119    10.133   .     S
Er40     V156    9.923   .     S
Er40     V111    9.923   .     S
Er40     V134    9.923   .     S
Er40     Er87    8.755   .     S
Er40     Er46    8.755   .     S
Er41     V101    9.668   1_455     S
Er41     V95    9.668   1_455     S
Er41     V107    9.668   .     S
Er41     V159    10.133   1_455     S
Er41     V125    10.133   1_455     S
Er41     V137    9.923   .     S
Er41     V129    9.923   .     S
Er41     Er69    8.755   1_455     S
Er41     Er73    8.755   .     S
Er42     V102    9.668   1_455     S
Er42     V96    9.668   1_455     S
Er42     V108    9.668   .     S
Er42     V160    10.133   1_455     S
Er42     V126    10.133   1_455     S
Er42     V138    9.923   .     S
Er42     V130    9.923   .     S
Er42     Er70    8.755   1_455     S
Er42     Er74    8.755   .     S
Er43     V103    9.668   1_455     S
Er43     V93    9.668   1_465     S
Er43     V105    9.668   1_565     S
Er43     V157    10.133   1_465     S
Er43     V127    10.133   1_455     S
Er43     V9    10.133   1_565     S
Er43     V139    9.923   .     S
Er43     V131    9.923   .     S
Er43     Er33    8.755   1_565     S
Er43     Er71    8.755   1_455     S
Er43     Er75    8.755   .     S
Er44     V104    9.668   1_455     S
Er44     V94    9.668   1_465     S
Er44     V106    9.668   1_565     S
Er44     V158    10.133   1_465     S
Er44     V128    10.133   1_455     S
Er44     V10    10.133   1_565     S
Er44     V140    9.923   .     S
Er44     V132    9.923   .     S
Er44     Er34    8.755   1_565     S
Er44     Er72    8.755   1_455     S
Er44     Er76    8.755   .     S
Er45     V97    9.668   .     S
Er45     V91    9.668   .     S
Er45     V111    9.668   .     S
Er45     V155    10.133   .     S
Er45     V121    10.133   .     S
Er45     V141    9.923   .     S
Er45     V133    9.923   .     S
Er45     Er65    8.755   .     S
Er45     Er77    8.755   .     S
Er46     V98    9.668   .     S
Er46     V92    9.668   .     S
Er46     V112    9.668   .     S
Er46     V156    10.133   .     S
Er46     V122    10.133   .     S
Er46     V142    9.923   .     S
Er46     V134    9.923   .     S
Er46     Er66    8.755   .     S
Er46     Er78    8.755   .     S
Er47     V99    9.668   .     S
Er47     V89    9.668   1_565     S
Er47     V109    9.668   1_565     S
Er47     V153    10.133   1_565     S
Er47     V123    10.133   .     S
Er47     V13    10.133   1_565     S
Er47     V143    9.923   .     S
Er47     V135    9.923   .     S
Er47     Er37    8.755   1_565     S
Er47     Er67    8.755   .     S
Er47     Er79    8.755   .     S
Er48     V100    9.668   .     S
Er48     V90    9.668   1_565     S
Er48     V110    9.668   1_565     S
Er48     V154    10.133   1_565     S
Er48     V124    10.133   .     S
Er48     V14    10.133   1_565     S
Er48     V144    9.923   .     S
Er48     V136    9.923   .     S
Er48     Er38    8.755   1_565     S
Er48     Er68    8.755   .     S
Er48     Er80    8.755   .     S
Er49     V99    9.668   1_545     S
Er49     V89    9.668   .     S
Er49     V109    9.668   .     S
Er49     V154    10.133   .     S
Er49     V121    10.133   .     S
Er49     V145    9.923   .     S
Er49     V113    9.923   .     S
Er49     Er57    8.755   .     S
Er49     Er81    8.755   .     S
Er50     V100    9.668   1_545     S
Er50     V90    9.668   .     S
Er50     V110    9.668   .     S
Er50     V153    10.133   1_556     S
Er50     V122    10.133   .     S
Er50     V146    9.923   .     S
Er50     V114    9.923   .     S
Er50     V17    9.923   1_556     S
Er50     Er25    8.755   1_556     S
Er50     Er58    8.755   .     S
Er50     Er82    8.755   .     S
Er51     V97    9.668   .     S
Er51     V91    9.668   .     S
Er51     V111    9.668   .     S
Er51     V156    10.133   .     S
Er51     V123    10.133   .     S
Er51     V147    9.923   .     S
Er51     V115    9.923   .     S
Er51     Er59    8.755   .     S
Er51     Er83    8.755   .     S
Er52     V98    9.668   .     S
Er52     V92    9.668   .     S
Er52     V112    9.668   .     S
Er52     V155    10.133   1_556     S
Er52     V124    10.133   .     S
Er52     V148    9.923   .     S
Er52     V116    9.923   .     S
Er52     V19    9.923   1_556     S
Er52     Er27    8.755   1_556     S
Er52     Er60    8.755   .     S
Er52     Er84    8.755   .     S
Er53     V103    9.668   1_545     S
Er53     V93    9.668   .     S
Er53     V105    9.668   1_655     S
Er53     V158    10.133   .     S
Er53     V125    10.133   .     S
Er53     V149    9.923   .     S
Er53     V117    9.923   .     S
Er53     Er61    8.755   .     S
Er53     Er85    8.755   .     S
Er54     V104    9.668   1_545     S
Er54     V94    9.668   .     S
Er54     V106    9.668   1_655     S
Er54     V157    10.133   1_556     S
Er54     V126    10.133   .     S
Er54     V150    9.923   .     S
Er54     V118    9.923   .     S
Er54     V21    9.923   1_556     S
Er54     Er29    8.755   1_556     S
Er54     Er62    8.755   .     S
Er54     Er86    8.755   .     S
Er55     V101    9.668   .     S
Er55     V95    9.668   .     S
Er55     V107    9.668   1_655     S
Er55     V160    10.133   .     S
Er55     V127    10.133   .     S
Er55     V151    9.923   .     S
Er55     V119    9.923   .     S
Er55     Er63    8.755   .     S
Er55     Er87    8.755   .     S
Er56     V102    9.668   .     S
Er56     V96    9.668   .     S
Er56     V108    9.668   1_655     S
Er56     V159    10.133   1_556     S
Er56     V128    10.133   .     S
Er56     V152    9.923   .     S
Er56     V120    9.923   .     S
Er56     V23    9.923   1_556     S
Er56     Er31    8.755   1_556     S
Er56     Er64    8.755   .     S
Er56     Er88    8.755   .     S
Er57     V137    10.133   .     S
Er57     V89    10.133   .     S
Er57     V113    10.133   .     S
Er57     V145    9.923   .     S
Er57     V97    9.923   .     S
Er57     V121    9.923   .     S
Er57     Er65    8.755   .     S
Er57     Er73    8.755   .     S
Er58     V138    10.133   .     S
Er58     V90    10.133   .     S
Er58     V114    10.133   .     S
Er58     V146    9.923   .     S
Er58     V98    9.923   .     S
Er58     V122    9.923   .     S
Er58     Er66    8.755   .     S
Er58     Er74    8.755   .     S
Er59     V139    10.133   .     S
Er59     V91    10.133   .     S
Er59     V115    10.133   .     S
Er59     V147    9.923   .     S
Er59     V99    9.923   .     S
Er59     V123    9.923   .     S
Er59     Er67    8.755   .     S
Er59     Er75    8.755   .     S
Er60     V140    10.133   .     S
Er60     V92    10.133   .     S
Er60     V116    10.133   .     S
Er60     V148    9.923   .     S
Er60     V100    9.923   .     S
Er60     V124    9.923   .     S
Er60     Er68    8.755   .     S
Er60     Er76    8.755   .     S
Er61     V141    10.133   .     S
Er61     V93    10.133   .     S
Er61     V117    10.133   .     S
Er61     V149    9.923   .     S
Er61     V101    9.923   .     S
Er61     V125    9.923   .     S
Er61     Er69    8.755   .     S
Er61     Er77    8.755   .     S
Er62     V142    10.133   .     S
Er62     V94    10.133   .     S
Er62     V118    10.133   .     S
Er62     V150    9.923   .     S
Er62     V102    9.923   .     S
Er62     V126    9.923   .     S
Er62     Er70    8.755   .     S
Er62     Er78    8.755   .     S
Er63     V143    10.133   .     S
Er63     V95    10.133   .     S
Er63     V119    10.133   .     S
Er63     V151    9.923   .     S
Er63     V103    9.923   .     S
Er63     V127    9.923   .     S
Er63     Er71    8.755   .     S
Er63     Er79    8.755   .     S
Er64     V144    10.133   .     S
Er64     V96    10.133   .     S
Er64     V120    10.133   .     S
Er64     V152    9.923   .     S
Er64     V104    9.923   .     S
Er64     V128    9.923   .     S
Er64     Er72    8.755   .     S
Er64     Er80    8.755   .     S
Er65     V146    9.668   1_554     S
Er65     V137    9.668   .     S
Er65     V155    9.668   .     S
Er65     V97    10.133   .     S
Er65     V133    10.133   .     S
Er65     V89    9.923   .     S
Er65     V121    9.923   .     S
Er66     V145    9.668   .     S
Er66     V138    9.668   .     S
Er66     V156    9.668   .     S
Er66     V98    10.133   .     S
Er66     V134    10.133   .     S
Er66     V90    9.923   .     S
Er66     V122    9.923   .     S
Er67     V148    9.668   1_554     S
Er67     V139    9.668   .     S
Er67     V153    9.668   1_565     S
Er67     V99    10.133   .     S
Er67     V135    10.133   .     S
Er67     V91    9.923   .     S
Er67     V123    9.923   .     S
Er68     V147    9.668   .     S
Er68     V140    9.668   .     S
Er68     V154    9.668   1_565     S
Er68     V100    10.133   .     S
Er68     V136    10.133   .     S
Er68     V92    9.923   .     S
Er68     V124    9.923   .     S
Er69     V150    9.668   1_554     S
Er69     V141    9.668   .     S
Er69     V159    9.668   .     S
Er69     V101    10.133   .     S
Er69     V129    10.133   1_655     S
Er69     V93    9.923   .     S
Er69     V125    9.923   .     S
Er69     V1    9.923   1_655     S
Er69     Er41    8.755   1_655     S
Er70     V149    9.668   .     S
Er70     V142    9.668   .     S
Er70     V160    9.668   .     S
Er70     V102    10.133   .     S
Er70     V130    10.133   1_655     S
Er70     V94    9.923   .     S
Er70     V126    9.923   .     S
Er70     V2    9.923   1_655     S
Er70     Er42    8.755   1_655     S
Er71     V152    9.668   1_554     S
Er71     V143    9.668   .     S
Er71     V157    9.668   1_565     S
Er71     V103    10.133   .     S
Er71     V131    10.133   1_655     S
Er71     V95    9.923   .     S
Er71     V127    9.923   .     S
Er71     V3    9.923   1_655     S
Er71     Er43    8.755   1_655     S
Er72     V151    9.668   .     S
Er72     V144    9.668   .     S
Er72     V158    9.668   1_565     S
Er72     V104    10.133   .     S
Er72     V132    10.133   1_655     S
Er72     V96    9.923   .     S
Er72     V128    9.923   .     S
Er72     V4    9.923   1_655     S
Er72     Er44    8.755   1_655     S
Er73     V125    9.668   1_455     S
Er73     V113    9.668   .     S
Er73     V130    9.668   .     S
Er73     V145    10.133   .     S
Er73     V107    10.133   .     S
Er73     V137    9.923   .     S
Er73     V97    9.923   .     S
Er73     Er83    8.755   .     S
Er74     V126    9.668   1_455     S
Er74     V114    9.668   .     S
Er74     V129    9.668   1_556     S
Er74     V146    10.133   .     S
Er74     V108    10.133   .     S
Er74     V138    9.923   .     S
Er74     V98    9.923   .     S
Er74     Er84    8.755   .     S
Er75     V127    9.668   1_455     S
Er75     V115    9.668   .     S
Er75     V132    9.668   .     S
Er75     V147    10.133   .     S
Er75     V105    10.133   1_565     S
Er75     V139    9.923   .     S
Er75     V99    9.923   .     S
Er75     V9    9.923   1_565     S
Er75     Er81    8.755   1_565     S
Er76     V128    9.668   1_455     S
Er76     V116    9.668   .     S
Er76     V131    9.668   1_556     S
Er76     V148    10.133   .     S
Er76     V106    10.133   1_565     S
Er76     V140    9.923   .     S
Er76     V100    9.923   .     S
Er76     V10    9.923   1_565     S
Er76     Er82    8.755   1_565     S
Er77     V121    9.668   .     S
Er77     V117    9.668   .     S
Er77     V134    9.668   .     S
Er77     V149    10.133   .     S
Er77     V111    10.133   .     S
Er77     V141    9.923   .     S
Er77     V101    9.923   .     S
Er77     Er87    8.755   .     S
Er78     V122    9.668   .     S
Er78     V118    9.668   .     S
Er78     V133    9.668   1_556     S
Er78     V150    10.133   .     S
Er78     V112    10.133   .     S
Er78     V142    9.923   .     S
Er78     V102    9.923   .     S
Er78     Er88    8.755   .     S
Er79     V123    9.668   .     S
Er79     V119    9.668   .     S
Er79     V136    9.668   .     S
Er79     V151    10.133   .     S
Er79     V109    10.133   1_565     S
Er79     V143    9.923   .     S
Er79     V103    9.923   .     S
Er79     V13    9.923   1_565     S
Er79     Er85    8.755   1_565     S
Er80     V124    9.668   .     S
Er80     V120    9.668   .     S
Er80     V135    9.668   1_556     S
Er80     V152    10.133   .     S
Er80     V110    10.133   1_565     S
Er80     V144    9.923   .     S
Er80     V104    9.923   .     S
Er80     V14    9.923   1_565     S
Er80     Er86    8.755   1_565     S
Er81     V147    9.668   1_545     S
Er81     V140    9.668   1_545     S
Er81     V154    9.668   .     S
Er81     V99    10.133   1_545     S
Er81     V132    10.133   1_545     S
Er81     V105    9.923   .     S
Er81     V113    9.923   .     S
Er81     Er75    8.755   1_545     S
Er82     V148    9.668   1_545     S
Er82     V139    9.668   1_546     S
Er82     V153    9.668   1_556     S
Er82     V100    10.133   1_545     S
Er82     V131    10.133   1_546     S
Er82     V17    10.133   1_556     S
Er82     V106    9.923   .     S
Er82     V114    9.923   .     S
Er82     Er33    8.755   1_556     S
Er82     Er76    8.755   1_545     S
Er83     V145    9.668   .     S
Er83     V138    9.668   .     S
Er83     V156    9.668   .     S
Er83     V97    10.133   .     S
Er83     V130    10.133   .     S
Er83     V107    9.923   .     S
Er83     V115    9.923   .     S
Er84     V146    9.668   .     S
Er84     V137    9.668   1_556     S
Er84     V155    9.668   1_556     S
Er84     V98    10.133   .     S
Er84     V129    10.133   1_556     S
Er84     V19    10.133   1_556     S
Er84     V108    9.923   .     S
Er84     V116    9.923   .     S
Er84     Er35    8.755   1_556     S
Er85     V151    9.668   1_545     S
Er85     V144    9.668   1_545     S
Er85     V158    9.668   .     S
Er85     V103    10.133   1_545     S
Er85     V136    10.133   1_545     S
Er85     V109    9.923   .     S
Er85     V117    9.923   .     S
Er85     Er79    8.755   1_545     S
Er86     V152    9.668   1_545     S
Er86     V143    9.668   1_546     S
Er86     V157    9.668   1_556     S
Er86     V104    10.133   1_545     S
Er86     V135    10.133   1_546     S
Er86     V21    10.133   1_556     S
Er86     V110    9.923   .     S
Er86     V118    9.923   .     S
Er86     Er37    8.755   1_556     S
Er86     Er80    8.755   1_545     S
Er87     V149    9.668   .     S
Er87     V142    9.668   .     S
Er87     V160    9.668   .     S
Er87     V101    10.133   .     S
Er87     V134    10.133   .     S
Er87     V111    9.923   .     S
Er87     V119    9.923   .     S
Er88     V150    9.668   .     S
Er88     V141    9.668   1_556     S
Er88     V159    9.668   1_556     S
Er88     V102    10.133   .     S
Er88     V133    10.133   1_556     S
Er88     V23    10.133   1_556     S
Er88     V112    9.923   .     S
Er88     V120    9.923   .     S
Er88     Er39    8.755   1_556     S
V89     Er47    9.668   1_545     S
V89     V121    10.107   .     S
V89     V153    10.107   .     S
V89     V99    9.484   1_545     S
V89     V109    9.484   .     S
V90     Er48    9.668   1_545     S
V90     V122    10.107   .     S
V90     V154    10.107   .     S
V90     V100    9.484   1_545     S
V90     V110    9.484   .     S
V91     V123    10.107   .     S
V91     V155    10.107   .     S
V91     V97    9.484   .     S
V91     V111    9.484   .     S
V92     V124    10.107   .     S
V92     V156    10.107   .     S
V92     V98    9.484   .     S
V92     V112    9.484   .     S
V93     V9    12.098   1_655     S
V93     Er43    9.668   1_645     S
V93     Er33    10.133   1_655     S
V93     V125    10.107   .     S
V93     V157    10.107   .     S
V93     V1    10.107   1_655     S
V93     V103    9.484   1_545     S
V93     V105    9.484   1_655     S
V94     V10    12.098   1_655     S
V94     Er44    9.668   1_645     S
V94     Er34    10.133   1_655     S
V94     V126    10.107   .     S
V94     V158    10.107   .     S
V94     V2    10.107   1_655     S
V94     V104    9.484   1_545     S
V94     V106    9.484   1_655     S
V95     V11    12.098   1_655     S
V95     Er41    9.668   1_655     S
V95     Er35    10.133   1_655     S
V95     V127    10.107   .     S
V95     V159    10.107   .     S
V95     V3    10.107   1_655     S
V95     V101    9.484   .     S
V95     V107    9.484   1_655     S
V96     V12    12.098   1_655     S
V96     Er42    9.668   1_655     S
V96     Er36    10.133   1_655     S
V96     V128    10.107   .     S
V96     V160    10.107   .     S
V96     V4    10.107   1_655     S
V96     V102    9.484   .     S
V96     V108    9.484   1_655     S
V97     V156    12.098   .     S
V97     V155    12.098   .     S
V97     V121    10.107   .     S
V97     V145    10.107   .     S
V97     V137    10.107   .     S
V97     V111    9.484   .     S
V98     V155    12.098   1_556     S
V98     V156    12.098   .     S
V98     V122    10.107   .     S
V98     V146    10.107   .     S
V98     V138    10.107   .     S
V98     V112    9.484   .     S
V99     V154    12.098   1_565     S
V99     V153    12.098   1_565     S
V99     Er49    9.668   1_565     S
V99     Er81    10.133   1_565     S
V99     V123    10.107   .     S
V99     V147    10.107   .     S
V99     V139    10.107   .     S
V99     V9    10.107   1_565     S
V99     V89    9.484   1_565     S
V99     V109    9.484   1_565     S
V100     V153    12.098   1_566     S
V100     V154    12.098   1_565     S
V100     Er50    9.668   1_565     S
V100     Er82    10.133   1_565     S
V100     V124    10.107   .     S
V100     V148    10.107   .     S
V100     V140    10.107   .     S
V100     V10    10.107   1_565     S
V100     V90    9.484   1_565     S
V100     V110    9.484   1_565     S
V101     V160    12.098   .     S
V101     V159    12.098   .     S
V101     Er41    9.668   1_655     S
V101     V125    10.107   .     S
V101     V149    10.107   .     S
V101     V141    10.107   .     S
V101     V107    9.484   1_655     S
V102     V159    12.098   1_556     S
V102     V160    12.098   .     S
V102     Er42    9.668   1_655     S
V102     V126    10.107   .     S
V102     V150    10.107   .     S
V102     V142    10.107   .     S
V102     V108    9.484   1_655     S
V103     V158    12.098   1_565     S
V103     V157    12.098   1_565     S
V103     Er43    9.668   1_655     S
V103     Er53    9.668   1_565     S
V103     Er85    10.133   1_565     S
V103     V127    10.107   .     S
V103     V151    10.107   .     S
V103     V143    10.107   .     S
V103     V13    10.107   1_565     S
V103     V93    9.484   1_565     S
V103     V105    9.484   1_665     S
V104     V157    12.098   1_566     S
V104     V158    12.098   1_565     S
V104     Er44    9.668   1_655     S
V104     Er54    9.668   1_565     S
V104     Er86    10.133   1_565     S
V104     V128    10.107   .     S
V104     V152    10.107   .     S
V104     V144    10.107   .     S
V104     V14    10.107   1_565     S
V104     V94    9.484   1_565     S
V104     V106    9.484   1_665     S
V105     V127    12.098   1_445     S
V105     V125    12.098   1_455     S
V105     Er53    9.668   1_455     S
V105     Er43    9.668   1_545     S
V105     Er75    10.133   1_545     S
V105     Er30    10.133   1_455     S
V105     V132    10.107   1_545     S
V105     V158    10.107   1_455     S
V105     V113    10.107   .     S
V105     V93    9.484   1_455     S
V105     V103    9.484   1_445     S
V106     V128    12.098   1_445     S
V106     V126    12.098   1_455     S
V106     Er54    9.668   1_455     S
V106     Er44    9.668   1_545     S
V106     Er76    10.133   1_545     S
V106     Er29    10.133   1_456     S
V106     Er33    9.923   1_556     S
V106     V131    10.107   1_546     S
V106     V157    10.107   1_456     S
V106     V114    10.107   .     S
V106     V94    9.484   1_455     S
V106     V104    9.484   1_445     S
V107     V125    12.098   1_455     S
V107     V127    12.098   1_455     S
V107     Er55    9.668   1_455     S
V107     Er32    10.133   1_455     S
V107     V130    10.107   .     S
V107     V160    10.107   1_455     S
V107     V115    10.107   .     S
V107     V95    9.484   1_455     S
V107     V101    9.484   1_455     S
V108     V126    12.098   1_455     S
V108     V128    12.098   1_455     S
V108     Er56    9.668   1_455     S
V108     Er31    10.133   1_456     S
V108     Er35    9.923   1_556     S
V108     V129    10.107   1_556     S
V108     V159    10.107   1_456     S
V108     V116    10.107   .     S
V108     V96    9.484   1_455     S
V108     V102    9.484   1_455     S
V109     V123    12.098   1_545     S
V109     V121    12.098   .     S
V109     Er47    9.668   1_545     S
V109     Er79    10.133   1_545     S
V109     V136    10.107   1_545     S
V109     V154    10.107   .     S
V109     V117    10.107   .     S
V109     V99    9.484   1_545     S
V110     V124    12.098   1_545     S
V110     V122    12.098   .     S
V110     Er48    9.668   1_545     S
V110     Er80    10.133   1_545     S
V110     Er25    10.133   1_556     S
V110     Er37    9.923   1_556     S
V110     V135    10.107   1_546     S
V110     V153    10.107   1_556     S
V110     V118    10.107   .     S
V110     V100    9.484   1_545     S
V111     V121    12.098   .     S
V111     V123    12.098   .     S
V111     V134    10.107   .     S
V111     V156    10.107   .     S
V111     V119    10.107   .     S
V112     V122    12.098   .     S
V112     V124    12.098   .     S
V112     Er27    10.133   1_556     S
V112     Er39    9.923   1_556     S
V112     V133    10.107   1_556     S
V112     V155    10.107   1_556     S
V112     V120    10.107   .     S
V113     Er30    9.668   1_455     S
V113     V145    10.107   .     S
V113     V125    9.484   1_455     S
V113     V130    9.484   .     S
V114     V1    12.098   1_556     S
V114     Er29    9.668   1_456     S
V114     Er33    10.133   1_556     S
V114     V146    10.107   .     S
V114     V17    10.107   1_556     S
V114     V126    9.484   1_455     S
V114     V129    9.484   1_556     S
V115     Er32    9.668   1_455     S
V115     V147    10.107   .     S
V115     V127    9.484   1_455     S
V115     V132    9.484   .     S
V116     V3    12.098   1_556     S
V116     Er31    9.668   1_456     S
V116     Er35    10.133   1_556     S
V116     V148    10.107   .     S
V116     V19    10.107   1_556     S
V116     V128    9.484   1_455     S
V116     V131    9.484   1_556     S
V117     V149    10.107   .     S
V117     V121    9.484   .     S
V117     V134    9.484   .     S
V118     V5    12.098   1_556     S
V118     Er25    9.668   1_556     S
V118     Er37    10.133   1_556     S
V118     V150    10.107   .     S
V118     V21    10.107   1_556     S
V118     V122    9.484   .     S
V118     V133    9.484   1_556     S
V119     V151    10.107   .     S
V119     V123    9.484   .     S
V119     V136    9.484   .     S
V120     V7    12.098   1_556     S
V120     Er27    9.668   1_556     S
V120     Er39    10.133   1_556     S
V120     V152    10.107   .     S
V120     V23    10.107   1_556     S
V120     V124    9.484   .     S
V120     V135    9.484   1_556     S
V121     V145    10.107   .     S
V121     V134    9.484   .     S
V122     Er25    9.668   1_556     S
V122     V146    10.107   .     S
V122     V133    9.484   1_556     S
V123     V109    12.098   1_565     S
V123     V147    10.107   .     S
V123     V136    9.484   .     S
V124     V110    12.098   1_565     S
V124     Er27    9.668   1_556     S
V124     V148    10.107   .     S
V124     V135    9.484   1_556     S
V125     V107    12.098   1_655     S
V125     V105    12.098   1_655     S
V125     Er73    9.668   1_655     S
V125     Er41    10.133   1_655     S
V125     V149    10.107   .     S
V125     V1    10.107   1_655     S
V125     V113    9.484   1_655     S
V125     V130    9.484   1_655     S
V126     V108    12.098   1_655     S
V126     V106    12.098   1_655     S
V126     Er29    9.668   1_556     S
V126     Er74    9.668   1_655     S
V126     Er42    10.133   1_655     S
V126     V150    10.107   .     S
V126     V2    10.107   1_655     S
V126     V114    9.484   1_655     S
V126     V129    9.484   1_656     S
V127     V105    12.098   1_665     S
V127     V107    12.098   1_655     S
V127     Er75    9.668   1_655     S
V127     Er43    10.133   1_655     S
V127     V151    10.107   .     S
V127     V3    10.107   1_655     S
V127     V115    9.484   1_655     S
V127     V132    9.484   1_655     S
V128     V106    12.098   1_665     S
V128     V108    12.098   1_655     S
V128     Er31    9.668   1_556     S
V128     Er76    9.668   1_655     S
V128     Er44    10.133   1_655     S
V128     V152    10.107   .     S
V128     V4    10.107   1_655     S
V128     V116    9.484   1_655     S
V128     V131    9.484   1_656     S
V129     V150    12.098   1_454     S
V129     V146    12.098   1_554     S
V129     Er74    9.668   1_554     S
V129     Er29    9.668   1_455     S
V129     Er69    10.133   1_455     S
V129     Er84    10.133   1_554     S
V129     V159    10.107   1_455     S
V129     V108    10.107   1_554     S
V129     V137    10.107   .     S
V129     V114    9.484   1_554     S
V129     V126    9.484   1_454     S
V130     V149    12.098   1_455     S
V130     V145    12.098   .     S
V130     Er30    9.668   1_455     S
V130     Er70    10.133   1_455     S
V130     V160    10.107   1_455     S
V130     V138    10.107   .     S
V130     V125    9.484   1_455     S
V131     V152    12.098   1_454     S
V131     V148    12.098   1_554     S
V131     Er76    9.668   1_554     S
V131     Er31    9.668   1_455     S
V131     Er71    10.133   1_455     S
V131     Er82    10.133   1_564     S
V131     Er33    9.923   1_565     S
V131     V157    10.107   1_465     S
V131     V106    10.107   1_564     S
V131     V139    10.107   .     S
V131     V116    9.484   1_554     S
V131     V128    9.484   1_454     S
V132     V151    12.098   1_455     S
V132     V147    12.098   .     S
V132     Er32    9.668   1_455     S
V132     Er72    10.133   1_455     S
V132     Er81    10.133   1_565     S
V132     Er34    9.923   1_565     S
V132     V158    10.107   1_465     S
V132     V105    10.107   1_565     S
V132     V140    10.107   .     S
V132     V127    9.484   1_455     S
V133     V146    12.098   1_554     S
V133     V150    12.098   1_554     S
V133     Er78    9.668   1_554     S
V133     Er88    10.133   1_554     S
V133     V155    10.107   .     S
V133     V112    10.107   1_554     S
V133     V141    10.107   .     S
V133     V118    9.484   1_554     S
V133     V122    9.484   1_554     S
V134     V145    12.098   .     S
V134     V149    12.098   .     S
V134     V156    10.107   .     S
V134     V142    10.107   .     S
V135     V148    12.098   1_554     S
V135     V152    12.098   1_554     S
V135     Er80    9.668   1_554     S
V135     Er86    10.133   1_564     S
V135     Er37    9.923   1_565     S
V135     V153    10.107   1_565     S
V135     V110    10.107   1_564     S
V135     V143    10.107   .     S
V135     V120    9.484   1_554     S
V135     V124    9.484   1_554     S
V136     V147    12.098   .     S
V136     V151    12.098   .     S
V136     Er85    10.133   1_565     S
V136     Er38    9.923   1_565     S
V136     V154    10.107   1_565     S
V136     V109    10.107   1_565     S
V136     V144    10.107   .     S
V137     Er84    9.668   1_554     S
V137     V155    9.484   .     S
V137     V146    9.484   1_554     S
V138     V156    9.484   .     S
V138     V145    9.484   .     S
V139     V17    12.098   1_565     S
V139     Er82    9.668   1_564     S
V139     Er33    10.133   1_565     S
V139     V9    10.107   1_565     S
V139     V153    9.484   1_565     S
V139     V148    9.484   1_554     S
V140     V18    12.098   1_565     S
V140     Er81    9.668   1_565     S
V140     Er34    10.133   1_565     S
V140     V10    10.107   1_565     S
V140     V154    9.484   1_565     S
V140     V147    9.484   .     S
V141     Er88    9.668   1_554     S
V141     V159    9.484   .     S
V141     V150    9.484   1_554     S
V142     V160    9.484   .     S
V142     V149    9.484   .     S
V143     V21    12.098   1_565     S
V143     Er86    9.668   1_564     S
V143     Er37    10.133   1_565     S
V143     V13    10.107   1_565     S
V143     V157    9.484   1_565     S
V143     V152    9.484   1_554     S
V144     V22    12.098   1_565     S
V144     Er85    9.668   1_565     S
V144     Er38    10.133   1_565     S
V144     V14    10.107   1_565     S
V144     V158    9.484   1_565     S
V144     V151    9.484   .     S
V145     V156    9.484   .     S
V146     V133    12.098   1_556     S
V146     V129    12.098   1_556     S
V146     Er65    9.668   1_556     S
V146     Er25    10.133   1_556     S
V146     V17    10.107   1_556     S
V146     V137    9.484   1_556     S
V146     V155    9.484   1_556     S
V147     Er81    9.668   1_565     S
V147     V154    9.484   1_565     S
V148     V135    12.098   1_556     S
V148     V131    12.098   1_556     S
V148     Er82    9.668   1_565     S
V148     Er67    9.668   1_556     S
V148     Er27    10.133   1_556     S
V148     V19    10.107   1_556     S
V148     V139    9.484   1_556     S
V148     V153    9.484   1_566     S
V149     V130    12.098   1_655     S
V149     V160    9.484   .     S
V150     V129    12.098   1_656     S
V150     V133    12.098   1_556     S
V150     Er69    9.668   1_556     S
V150     Er29    10.133   1_556     S
V150     V21    10.107   1_556     S
V150     V141    9.484   1_556     S
V150     V159    9.484   1_556     S
V151     V132    12.098   1_655     S
V151     Er85    9.668   1_565     S
V151     V158    9.484   1_565     S
V152     V131    12.098   1_656     S
V152     V135    12.098   1_556     S
V152     Er86    9.668   1_565     S
V152     Er71    9.668   1_556     S
V152     Er31    10.133   1_556     S
V152     V23    10.107   1_556     S
V152     V143    9.484   1_556     S
V152     V157    9.484   1_566     S
V153     V100    12.098   1_544     S
V153     V99    12.098   1_545     S
V153     Er67    9.668   1_545     S
V153     Er82    9.668   1_554     S
V153     Er50    10.133   1_554     S
V153     Er47    10.133   1_545     S
V153     V135    10.107   1_545     S
V153     V110    10.107   1_554     S
V153     V139    9.484   1_545     S
V153     V148    9.484   1_544     S
V154     V99    12.098   1_545     S
V154     V100    12.098   1_545     S
V154     Er68    9.668   1_545     S
V154     Er48    10.133   1_545     S
V154     V136    10.107   1_545     S
V154     V140    9.484   1_545     S
V154     V147    9.484   1_545     S
V155     V98    12.098   1_554     S
V155     Er84    9.668   1_554     S
V155     Er52    10.133   1_554     S
V155     V112    10.107   1_554     S
V155     V146    9.484   1_554     S
V157     V104    12.098   1_544     S
V157     V103    12.098   1_545     S
V157     Er71    9.668   1_545     S
V157     Er86    9.668   1_554     S
V157     Er54    10.133   1_554     S
V157     Er43    10.133   1_645     S
V157     Er33    9.923   1_655     S
V157     V131    10.107   1_645     S
V157     V106    10.107   1_654     S
V157     V143    9.484   1_545     S
V157     V152    9.484   1_544     S
V158     V103    12.098   1_545     S
V158     V104    12.098   1_545     S
V158     Er72    9.668   1_545     S
V158     Er44    10.133   1_645     S
V158     Er34    9.923   1_655     S
V158     V132    10.107   1_645     S
V158     V105    10.107   1_655     S
V158     V144    9.484   1_545     S
V158     V151    9.484   1_545     S
V159     V102    12.098   1_554     S
V159     Er88    9.668   1_554     S
V159     Er56    10.133   1_554     S
V159     Er41    10.133   1_655     S
V159     Er35    9.923   1_655     S
V159     V129    10.107   1_655     S
V159     V108    10.107   1_654     S
V159     V150    9.484   1_554     S
V160     Er42    10.133   1_655     S
V160     Er36    9.923   1_655     S
V160     V130    10.107   1_655     S
V160     V107    10.107   1_655     S
