data_cao
_audit_creation_date              2019-12-31
_audit_creation_method            'Pymatgen'
_symmetry_space_group_name_H-M    'P1'
_symmetry_Int_Tables_number       1
loop_
_symmetry_equiv_pos_as_xyz
  x,y,z
_cell_length_a                    26.4576
_cell_length_b                    26.4576
_cell_length_c                    30.0
_cell_angle_alpha                 90.0
_cell_angle_beta                 90.0
_cell_angle_gamma                 90.0
loop_
_atom_site_label
_atom_site_type_symbol
_atom_site_fract_x
_atom_site_fract_y
_atom_site_fract_z
V1     V     0.25   0.25   0.1667
V2     V     0.25   0.25   0.5
V3     V     0.25   0.25   0.8333
V4     V     0.25   0.75   0.1667
V5     V     0.25   0.75   0.5
V6     V     0.25   0.75   0.8333
V7     V     0.75   0.25   0.1667
V8     V     0.75   0.25   0.5
V9     V     0.75   0.25   0.8333
V10     V     0.75   0.75   0.1667
V11     V     0.75   0.75   0.5
V12     V     0.75   0.75   0.8333
V13     V     0.0   0.0   0.0
V14     V     0.0   0.0   0.3333
V15     V     0.0   0.0   0.6667
V16     V     0.0   0.5   0.0
V17     V     0.0   0.5   0.3333
V18     V     0.0   0.5   0.6667
V19     V     0.5   0.0   0.0
V20     V     0.5   0.0   0.3333
V21     V     0.5   0.0   0.6667
V22     V     0.5   0.5   0.0
V23     V     0.5   0.5   0.3333
V24     V     0.5   0.5   0.6667
Er25     Er     0.0   0.25   0.0833
Er26     Er     0.0   0.25   0.4167
Er27     Er     0.0   0.25   0.75
Er28     Er     0.0   0.75   0.0833
Er29     Er     0.0   0.75   0.4167
Er30     Er     0.0   0.75   0.75
Er31     Er     0.5   0.25   0.0833
Er32     Er     0.5   0.25   0.4167
Er33     Er     0.5   0.25   0.75
Er34     Er     0.5   0.75   0.0833
Er35     Er     0.5   0.75   0.4167
Er36     Er     0.5   0.75   0.75
Er37     Er     0.25   0.0   0.25
Er38     Er     0.25   0.0   0.5833
Er39     Er     0.25   0.0   0.9167
Er40     Er     0.25   0.5   0.25
Er41     Er     0.25   0.5   0.5833
Er42     Er     0.25   0.5   0.9167
Er43     Er     0.75   0.0   0.25
Er44     Er     0.75   0.0   0.5833
Er45     Er     0.75   0.0   0.9167
Er46     Er     0.75   0.5   0.25
Er47     Er     0.75   0.5   0.5833
Er48     Er     0.75   0.5   0.9167
loop_
_geom_bond_atom_site_label_1
_geom_bond_atom_site_label_2
_geom_bond_distance
_geom_bond_site_symmetry_2
_ccdc_geom_bond_type
V1     V3    10.0   1_554     S
V1     V2    10.0   .     S
V1     Er42    10.0   1_554     S
V1     Er32    10.0   .     S
V1     Er39    10.0   1_554     S
V1     Er26    10.0   .     S
V2     V3    10.0   .     S
V2     Er40    10.0   .     S
V2     Er33    10.0   .     S
V2     Er37    10.0   .     S
V2     Er27    10.0   .     S
V3     V1    10.0   1_556     S
V3     Er41    10.0   .     S
V3     Er31    10.0   1_556     S
V3     Er38    10.0   .     S
V3     Er25    10.0   1_556     S
V4     V6    10.0   1_554     S
V4     V5    10.0   .     S
V4     Er39    10.0   1_564     S
V4     Er35    10.0   .     S
V4     Er42    10.0   1_554     S
V4     Er29    10.0   .     S
V5     V6    10.0   .     S
V5     Er37    10.0   1_565     S
V5     Er36    10.0   .     S
V5     Er40    10.0   .     S
V5     Er30    10.0   .     S
V6     V4    10.0   1_556     S
V6     Er38    10.0   1_565     S
V6     Er34    10.0   1_556     S
V6     Er41    10.0   .     S
V6     Er28    10.0   1_556     S
V7     V9    10.0   1_554     S
V7     V8    10.0   .     S
V7     Er48    10.0   1_554     S
V7     Er26    10.0   1_655     S
V7     Er45    10.0   1_554     S
V7     Er32    10.0   .     S
V8     V9    10.0   .     S
V8     Er46    10.0   .     S
V8     Er27    10.0   1_655     S
V8     Er43    10.0   .     S
V8     Er33    10.0   .     S
V9     V7    10.0   1_556     S
V9     Er47    10.0   .     S
V9     Er25    10.0   1_656     S
V9     Er44    10.0   .     S
V9     Er31    10.0   1_556     S
V10     V12    10.0   1_554     S
V10     V11    10.0   .     S
V10     Er45    10.0   1_564     S
V10     Er29    10.0   1_655     S
V10     Er48    10.0   1_554     S
V10     Er35    10.0   .     S
V11     V12    10.0   .     S
V11     Er43    10.0   1_565     S
V11     Er30    10.0   1_655     S
V11     Er46    10.0   .     S
V11     Er36    10.0   .     S
V12     V10    10.0   1_556     S
V12     Er44    10.0   1_565     S
V12     Er28    10.0   1_656     S
V12     Er47    10.0   .     S
V12     Er34    10.0   1_556     S
V13     V14    10.0   .     S
V13     V15    10.0   1_554     S
V13     Er27    10.0   1_554     S
V13     Er37    10.0   .     S
V13     Er30    10.0   1_544     S
V13     Er43    10.0   1_455     S
V14     V15    10.0   .     S
V14     Er25    10.0   .     S
V14     Er38    10.0   .     S
V14     Er28    10.0   1_545     S
V14     Er44    10.0   1_455     S
V15     V13    10.0   1_556     S
V15     Er26    10.0   .     S
V15     Er39    10.0   .     S
V15     Er29    10.0   1_545     S
V15     Er45    10.0   1_455     S
V16     V17    10.0   .     S
V16     V18    10.0   1_554     S
V16     Er30    10.0   1_554     S
V16     Er40    10.0   .     S
V16     Er27    10.0   1_554     S
V16     Er46    10.0   1_455     S
V17     V18    10.0   .     S
V17     Er28    10.0   .     S
V17     Er41    10.0   .     S
V17     Er25    10.0   .     S
V17     Er47    10.0   1_455     S
V18     V16    10.0   1_556     S
V18     Er29    10.0   .     S
V18     Er42    10.0   .     S
V18     Er26    10.0   .     S
V18     Er48    10.0   1_455     S
V19     V20    10.0   .     S
V19     V21    10.0   1_554     S
V19     Er33    10.0   1_554     S
V19     Er43    10.0   .     S
V19     Er36    10.0   1_544     S
V19     Er37    10.0   .     S
V20     V21    10.0   .     S
V20     Er31    10.0   .     S
V20     Er44    10.0   .     S
V20     Er34    10.0   1_545     S
V20     Er38    10.0   .     S
V21     V19    10.0   1_556     S
V21     Er32    10.0   .     S
V21     Er45    10.0   .     S
V21     Er35    10.0   1_545     S
V21     Er39    10.0   .     S
V22     V23    10.0   .     S
V22     V24    10.0   1_554     S
V22     Er36    10.0   1_554     S
V22     Er46    10.0   .     S
V22     Er33    10.0   1_554     S
V22     Er40    10.0   .     S
V23     V24    10.0   .     S
V23     Er34    10.0   .     S
V23     Er47    10.0   .     S
V23     Er31    10.0   .     S
V23     Er41    10.0   .     S
V24     V22    10.0   1_556     S
V24     Er35    10.0   .     S
V24     Er48    10.0   .     S
V24     Er32    10.0   .     S
V24     Er42    10.0   .     S
Er25     V9    10.0   1_454     S
Er25     V3    10.0   1_554     S
Er26     V7    10.0   1_455     S
Er27     V8    10.0   1_455     S
Er27     V13    10.0   1_556     S
Er27     V16    10.0   1_556     S
Er28     V12    10.0   1_454     S
Er28     V6    10.0   1_554     S
Er28     V14    10.0   1_565     S
Er29     V10    10.0   1_455     S
Er29     V15    10.0   1_565     S
Er30     V11    10.0   1_455     S
Er30     V16    10.0   1_556     S
Er30     V13    10.0   1_566     S
Er31     V3    10.0   1_554     S
Er31     V9    10.0   1_554     S
Er33     V19    10.0   1_556     S
Er33     V22    10.0   1_556     S
Er34     V6    10.0   1_554     S
Er34     V12    10.0   1_554     S
Er34     V20    10.0   1_565     S
Er35     V21    10.0   1_565     S
Er36     V22    10.0   1_556     S
Er36     V19    10.0   1_566     S
Er37     V5    10.0   1_545     S
Er38     V6    10.0   1_545     S
Er39     V4    10.0   1_546     S
Er39     V1    10.0   1_556     S
Er42     V1    10.0   1_556     S
Er42     V4    10.0   1_556     S
Er43     V11    10.0   1_545     S
Er43     V13    10.0   1_655     S
Er44     V12    10.0   1_545     S
Er44     V14    10.0   1_655     S
Er45     V10    10.0   1_546     S
Er45     V7    10.0   1_556     S
Er45     V15    10.0   1_655     S
Er46     V16    10.0   1_655     S
Er47     V17    10.0   1_655     S
Er48     V7    10.0   1_556     S
Er48     V10    10.0   1_556     S
Er48     V18    10.0   1_655     S
