data_cla-d
_audit_creation_date              2019-12-31
_audit_creation_method            'Pymatgen'
_symmetry_space_group_name_H-M    'P1'
_symmetry_Int_Tables_number       1
loop_
_symmetry_equiv_pos_as_xyz
  x,y,z
_cell_length_a                    41.3126
_cell_length_b                    41.3126
_cell_length_c                    41.3126
_cell_angle_alpha                 90.0
_cell_angle_beta                 90.0
_cell_angle_gamma                 90.0
loop_
_atom_site_label
_atom_site_type_symbol
_atom_site_fract_x
_atom_site_fract_y
_atom_site_fract_z
Er1     Er     0.1578   0.3422   0.3422
Er2     Er     0.1578   0.3422   0.8422
Er3     Er     0.1578   0.8422   0.3422
Er4     Er     0.1578   0.8422   0.8422
Er5     Er     0.6579   0.3422   0.3422
Er6     Er     0.6579   0.3422   0.8422
Er7     Er     0.6579   0.8422   0.3422
Er8     Er     0.6579   0.8422   0.8422
V9     V     0.0   0.25   0.25
V10     V     0.0   0.25   0.75
V11     V     0.0   0.75   0.25
V12     V     0.0   0.75   0.75
V13     V     0.5   0.25   0.25
V14     V     0.5   0.25   0.75
V15     V     0.5   0.75   0.25
V16     V     0.5   0.75   0.75
Er17     Er     0.3422   0.1578   0.3422
Er18     Er     0.3422   0.1578   0.8422
Er19     Er     0.3422   0.6579   0.3422
Er20     Er     0.3422   0.6579   0.8422
Er21     Er     0.8422   0.1578   0.3422
Er22     Er     0.8422   0.1578   0.8422
Er23     Er     0.8422   0.6579   0.3422
Er24     Er     0.8422   0.6579   0.8422
V25     V     0.25   0.0   0.25
V26     V     0.25   0.0   0.75
V27     V     0.25   0.5   0.25
V28     V     0.25   0.5   0.75
V29     V     0.75   0.0   0.25
V30     V     0.75   0.0   0.75
V31     V     0.75   0.5   0.25
V32     V     0.75   0.5   0.75
V33     V     0.25   0.25   0.0
V34     V     0.25   0.25   0.5
V35     V     0.25   0.75   0.0
V36     V     0.25   0.75   0.5
V37     V     0.75   0.25   0.0
V38     V     0.75   0.25   0.5
V39     V     0.75   0.75   0.0
V40     V     0.75   0.75   0.5
Er41     Er     0.3422   0.3422   0.1578
Er42     Er     0.3422   0.3422   0.6579
Er43     Er     0.3422   0.8422   0.1578
Er44     Er     0.3422   0.8422   0.6579
Er45     Er     0.8422   0.3422   0.1578
Er46     Er     0.8422   0.3422   0.6579
Er47     Er     0.8422   0.8422   0.1578
Er48     Er     0.8422   0.8422   0.6579
Er49     Er     0.1578   0.1578   0.1578
Er50     Er     0.1578   0.1578   0.6579
Er51     Er     0.1578   0.6579   0.1578
Er52     Er     0.1578   0.6579   0.6579
Er53     Er     0.6579   0.1578   0.1578
Er54     Er     0.6579   0.1578   0.6579
Er55     Er     0.6579   0.6579   0.1578
Er56     Er     0.6579   0.6579   0.6579
Er57     Er     0.0922   0.4079   0.0922
Er58     Er     0.0922   0.4079   0.5922
Er59     Er     0.0922   0.9078   0.0922
Er60     Er     0.0922   0.9078   0.5922
Er61     Er     0.5922   0.4079   0.0922
Er62     Er     0.5922   0.4079   0.5922
Er63     Er     0.5922   0.9078   0.0922
Er64     Er     0.5922   0.9078   0.5922
Er65     Er     0.0922   0.0922   0.4079
Er66     Er     0.0922   0.0922   0.9078
Er67     Er     0.0922   0.5922   0.4079
Er68     Er     0.0922   0.5922   0.9078
Er69     Er     0.5922   0.0922   0.4079
Er70     Er     0.5922   0.0922   0.9078
Er71     Er     0.5922   0.5922   0.4079
Er72     Er     0.5922   0.5922   0.9078
Er73     Er     0.4079   0.0922   0.0922
Er74     Er     0.4079   0.0922   0.5922
Er75     Er     0.4079   0.5922   0.0922
Er76     Er     0.4079   0.5922   0.5922
Er77     Er     0.9078   0.0922   0.0922
Er78     Er     0.9078   0.0922   0.5922
Er79     Er     0.9078   0.5922   0.0922
Er80     Er     0.9078   0.5922   0.5922
V81     V     0.0   0.0   0.25
V82     V     0.0   0.0   0.75
V83     V     0.0   0.5   0.25
V84     V     0.0   0.5   0.75
V85     V     0.5   0.0   0.25
V86     V     0.5   0.0   0.75
V87     V     0.5   0.5   0.25
V88     V     0.5   0.5   0.75
V89     V     0.25   0.0   0.0
V90     V     0.25   0.0   0.5
V91     V     0.25   0.5   0.0
V92     V     0.25   0.5   0.5
V93     V     0.75   0.0   0.0
V94     V     0.75   0.0   0.5
V95     V     0.75   0.5   0.0
V96     V     0.75   0.5   0.5
V97     V     0.0   0.25   0.0
V98     V     0.0   0.25   0.5
V99     V     0.0   0.75   0.0
V100     V     0.0   0.75   0.5
V101     V     0.5   0.25   0.0
V102     V     0.5   0.25   0.5
V103     V     0.5   0.75   0.0
V104     V     0.5   0.75   0.5
Er105     Er     0.4079   0.4079   0.4079
Er106     Er     0.4079   0.4079   0.9078
Er107     Er     0.4079   0.9078   0.4079
Er108     Er     0.4079   0.9078   0.9078
Er109     Er     0.9078   0.4079   0.4079
Er110     Er     0.9078   0.4079   0.9078
Er111     Er     0.9078   0.9078   0.4079
Er112     Er     0.9078   0.9078   0.9078
loop_
_geom_bond_atom_site_label_1
_geom_bond_atom_site_label_2
_geom_bond_distance
_geom_bond_site_symmetry_2
_ccdc_geom_bond_type
Er1     V98    9.977   .     S
Er1     V83    9.977   .     S
Er1     V92    9.977   .     S
Er1     Er58    11.018   .     S
Er1     Er67    11.018   .     S
Er1     Er109    11.018   1_455     S
Er1     Er57    11.018   .     S
Er1     Er105    11.018   .     S
Er1     Er65    11.018   .     S
Er1     V9    8.456   .     S
Er1     V34    8.456   .     S
Er1     V27    8.456   .     S
Er1     Er49    10.768   .     S
Er1     Er41    10.768   .     S
Er1     Er17    10.768   .     S
Er2     V97    9.977   1_556     S
Er2     V84    9.977   .     S
Er2     V91    9.977   1_556     S
Er2     Er57    11.018   1_556     S
Er2     Er68    11.018   .     S
Er2     Er110    11.018   1_455     S
Er2     Er58    11.018   .     S
Er2     Er106    11.018   .     S
Er2     Er66    11.018   .     S
Er2     V10    8.456   .     S
Er2     V33    8.456   1_556     S
Er2     V28    8.456   .     S
Er2     Er50    10.768   .     S
Er2     Er42    10.768   .     S
Er2     Er18    10.768   .     S
Er3     V100    9.977   .     S
Er3     V81    9.977   1_565     S
Er3     V90    9.977   1_565     S
Er3     Er60    11.018   .     S
Er3     Er65    11.018   1_565     S
Er3     Er111    11.018   1_455     S
Er3     Er59    11.018   .     S
Er3     Er107    11.018   .     S
Er3     Er67    11.018   .     S
Er3     V11    8.456   .     S
Er3     V36    8.456   .     S
Er3     V25    8.456   1_565     S
Er3     Er51    10.768   .     S
Er3     Er43    10.768   .     S
Er3     Er19    10.768   .     S
Er4     V99    9.977   1_556     S
Er4     V82    9.977   1_565     S
Er4     V89    9.977   1_566     S
Er4     Er59    11.018   1_556     S
Er4     Er66    11.018   1_565     S
Er4     Er112    11.018   1_455     S
Er4     Er60    11.018   .     S
Er4     Er108    11.018   .     S
Er4     Er68    11.018   .     S
Er4     V12    8.456   .     S
Er4     V35    8.456   1_556     S
Er4     V26    8.456   1_565     S
Er4     Er52    10.768   .     S
Er4     Er44    10.768   .     S
Er4     Er20    10.768   .     S
Er5     V102    9.977   .     S
Er5     V87    9.977   .     S
Er5     V96    9.977   .     S
Er5     Er62    11.018   .     S
Er5     Er71    11.018   .     S
Er5     Er105    11.018   .     S
Er5     Er61    11.018   .     S
Er5     Er109    11.018   .     S
Er5     Er69    11.018   .     S
Er5     V13    8.456   .     S
Er5     V38    8.456   .     S
Er5     V31    8.456   .     S
Er5     Er53    10.768   .     S
Er5     Er45    10.768   .     S
Er5     Er21    10.768   .     S
Er6     V101    9.977   1_556     S
Er6     V88    9.977   .     S
Er6     V95    9.977   1_556     S
Er6     Er61    11.018   1_556     S
Er6     Er72    11.018   .     S
Er6     Er106    11.018   .     S
Er6     Er62    11.018   .     S
Er6     Er110    11.018   .     S
Er6     Er70    11.018   .     S
Er6     V14    8.456   .     S
Er6     V37    8.456   1_556     S
Er6     V32    8.456   .     S
Er6     Er54    10.768   .     S
Er6     Er46    10.768   .     S
Er6     Er22    10.768   .     S
Er7     V104    9.977   .     S
Er7     V85    9.977   1_565     S
Er7     V94    9.977   1_565     S
Er7     Er64    11.018   .     S
Er7     Er69    11.018   1_565     S
Er7     Er107    11.018   .     S
Er7     Er63    11.018   .     S
Er7     Er111    11.018   .     S
Er7     Er71    11.018   .     S
Er7     V15    8.456   .     S
Er7     V40    8.456   .     S
Er7     V29    8.456   1_565     S
Er7     Er55    10.768   .     S
Er7     Er47    10.768   .     S
Er7     Er23    10.768   .     S
Er8     V103    9.977   1_556     S
Er8     V86    9.977   1_565     S
Er8     V93    9.977   1_566     S
Er8     Er63    11.018   1_556     S
Er8     Er70    11.018   1_565     S
Er8     Er108    11.018   .     S
Er8     Er64    11.018   .     S
Er8     Er112    11.018   .     S
Er8     Er72    11.018   .     S
Er8     V16    8.456   .     S
Er8     V39    8.456   1_556     S
Er8     V30    8.456   1_565     S
Er8     Er56    10.768   .     S
Er8     Er48    10.768   .     S
Er8     Er24    10.768   .     S
V9     V97    10.328   .     S
V9     V98    10.328   .     S
V9     V81    10.328   .     S
V9     V83    10.328   .     S
V9     Er109    9.977   1_455     S
V9     Er65    9.977   .     S
V9     Er77    9.977   1_455     S
V9     Er57    9.977   .     S
V9     Er49    8.456   .     S
V9     Er45    8.456   1_455     S
V9     Er21    8.456   1_455     S
V10     V98    10.328   .     S
V10     V97    10.328   1_556     S
V10     V82    10.328   .     S
V10     V84    10.328   .     S
V10     Er110    9.977   1_455     S
V10     Er66    9.977   .     S
V10     Er78    9.977   1_455     S
V10     Er58    9.977   .     S
V10     Er50    8.456   .     S
V10     Er46    8.456   1_455     S
V10     Er22    8.456   1_455     S
V11     V99    10.328   .     S
V11     V100    10.328   .     S
V11     V83    10.328   .     S
V11     V81    10.328   1_565     S
V11     Er111    9.977   1_455     S
V11     Er67    9.977   .     S
V11     Er79    9.977   1_455     S
V11     Er59    9.977   .     S
V11     Er51    8.456   .     S
V11     Er47    8.456   1_455     S
V11     Er23    8.456   1_455     S
V12     V100    10.328   .     S
V12     V99    10.328   1_556     S
V12     V84    10.328   .     S
V12     V82    10.328   1_565     S
V12     Er112    9.977   1_455     S
V12     Er68    9.977   .     S
V12     Er80    9.977   1_455     S
V12     Er60    9.977   .     S
V12     Er52    8.456   .     S
V12     Er48    8.456   1_455     S
V12     Er24    8.456   1_455     S
V13     V101    10.328   .     S
V13     V102    10.328   .     S
V13     V85    10.328   .     S
V13     V87    10.328   .     S
V13     Er105    9.977   .     S
V13     Er69    9.977   .     S
V13     Er73    9.977   .     S
V13     Er61    9.977   .     S
V13     Er53    8.456   .     S
V13     Er41    8.456   .     S
V13     Er17    8.456   .     S
V14     V102    10.328   .     S
V14     V101    10.328   1_556     S
V14     V86    10.328   .     S
V14     V88    10.328   .     S
V14     Er106    9.977   .     S
V14     Er70    9.977   .     S
V14     Er74    9.977   .     S
V14     Er62    9.977   .     S
V14     Er54    8.456   .     S
V14     Er42    8.456   .     S
V14     Er18    8.456   .     S
V15     V103    10.328   .     S
V15     V104    10.328   .     S
V15     V87    10.328   .     S
V15     V85    10.328   1_565     S
V15     Er107    9.977   .     S
V15     Er71    9.977   .     S
V15     Er75    9.977   .     S
V15     Er63    9.977   .     S
V15     Er55    8.456   .     S
V15     Er43    8.456   .     S
V15     Er19    8.456   .     S
V16     V104    10.328   .     S
V16     V103    10.328   1_556     S
V16     V88    10.328   .     S
V16     V86    10.328   1_565     S
V16     Er108    9.977   .     S
V16     Er72    9.977   .     S
V16     Er76    9.977   .     S
V16     Er64    9.977   .     S
V16     Er56    8.456   .     S
V16     Er44    8.456   .     S
V16     Er20    8.456   .     S
Er17     V90    9.977   .     S
Er17     V85    9.977   .     S
Er17     V102    9.977   .     S
Er17     Er74    11.018   .     S
Er17     Er107    11.018   1_545     S
Er17     Er69    11.018   .     S
Er17     Er73    11.018   .     S
Er17     Er65    11.018   .     S
Er17     Er105    11.018   .     S
Er17     V25    8.456   .     S
Er17     V34    8.456   .     S
Er17     Er49    10.768   .     S
Er17     Er41    10.768   .     S
Er18     V89    9.977   1_556     S
Er18     V86    9.977   .     S
Er18     V101    9.977   1_556     S
Er18     Er73    11.018   1_556     S
Er18     Er108    11.018   1_545     S
Er18     Er70    11.018   .     S
Er18     Er74    11.018   .     S
Er18     Er66    11.018   .     S
Er18     Er106    11.018   .     S
Er18     V26    8.456   .     S
Er18     V33    8.456   1_556     S
Er18     Er50    10.768   .     S
Er18     Er42    10.768   .     S
Er19     V92    9.977   .     S
Er19     V87    9.977   .     S
Er19     V104    9.977   .     S
Er19     Er76    11.018   .     S
Er19     Er105    11.018   .     S
Er19     Er71    11.018   .     S
Er19     Er75    11.018   .     S
Er19     Er67    11.018   .     S
Er19     Er107    11.018   .     S
Er19     V27    8.456   .     S
Er19     V36    8.456   .     S
Er19     Er51    10.768   .     S
Er19     Er43    10.768   .     S
Er20     V91    9.977   1_556     S
Er20     V88    9.977   .     S
Er20     V103    9.977   1_556     S
Er20     Er75    11.018   1_556     S
Er20     Er106    11.018   .     S
Er20     Er72    11.018   .     S
Er20     Er76    11.018   .     S
Er20     Er68    11.018   .     S
Er20     Er108    11.018   .     S
Er20     V28    8.456   .     S
Er20     V35    8.456   1_556     S
Er20     Er52    10.768   .     S
Er20     Er44    10.768   .     S
Er21     V94    9.977   .     S
Er21     V81    9.977   1_655     S
Er21     V98    9.977   1_655     S
Er21     Er78    11.018   .     S
Er21     Er111    11.018   1_545     S
Er21     Er65    11.018   1_655     S
Er21     Er77    11.018   .     S
Er21     Er69    11.018   .     S
Er21     Er109    11.018   .     S
Er21     V29    8.456   .     S
Er21     V38    8.456   .     S
Er21     V9    8.456   1_655     S
Er21     Er53    10.768   .     S
Er21     Er45    10.768   .     S
Er22     V93    9.977   1_556     S
Er22     V82    9.977   1_655     S
Er22     V97    9.977   1_656     S
Er22     Er77    11.018   1_556     S
Er22     Er112    11.018   1_545     S
Er22     Er66    11.018   1_655     S
Er22     Er78    11.018   .     S
Er22     Er70    11.018   .     S
Er22     Er110    11.018   .     S
Er22     V30    8.456   .     S
Er22     V37    8.456   1_556     S
Er22     V10    8.456   1_655     S
Er22     Er54    10.768   .     S
Er22     Er46    10.768   .     S
Er23     V96    9.977   .     S
Er23     V83    9.977   1_655     S
Er23     V100    9.977   1_655     S
Er23     Er80    11.018   .     S
Er23     Er109    11.018   .     S
Er23     Er67    11.018   1_655     S
Er23     Er79    11.018   .     S
Er23     Er71    11.018   .     S
Er23     Er111    11.018   .     S
Er23     V31    8.456   .     S
Er23     V40    8.456   .     S
Er23     V11    8.456   1_655     S
Er23     Er55    10.768   .     S
Er23     Er47    10.768   .     S
Er24     V95    9.977   1_556     S
Er24     V84    9.977   1_655     S
Er24     V99    9.977   1_656     S
Er24     Er79    11.018   1_556     S
Er24     Er110    11.018   .     S
Er24     Er68    11.018   1_655     S
Er24     Er80    11.018   .     S
Er24     Er72    11.018   .     S
Er24     Er112    11.018   .     S
Er24     V32    8.456   .     S
Er24     V39    8.456   1_556     S
Er24     V12    8.456   1_655     S
Er24     Er56    10.768   .     S
Er24     Er48    10.768   .     S
V25     V90    10.328   .     S
V25     V89    10.328   .     S
V25     V85    10.328   .     S
V25     V81    10.328   .     S
V25     Er73    9.977   .     S
V25     Er59    9.977   1_545     S
V25     Er65    9.977   .     S
V25     Er107    9.977   1_545     S
V25     Er49    8.456   .     S
V25     Er3    8.456   1_545     S
V25     Er43    8.456   1_545     S
V26     V89    10.328   1_556     S
V26     V90    10.328   .     S
V26     V86    10.328   .     S
V26     V82    10.328   .     S
V26     Er74    9.977   .     S
V26     Er60    9.977   1_545     S
V26     Er66    9.977   .     S
V26     Er108    9.977   1_545     S
V26     Er50    8.456   .     S
V26     Er4    8.456   1_545     S
V26     Er44    8.456   1_545     S
V27     V92    10.328   .     S
V27     V91    10.328   .     S
V27     V87    10.328   .     S
V27     V83    10.328   .     S
V27     Er75    9.977   .     S
V27     Er57    9.977   .     S
V27     Er67    9.977   .     S
V27     Er105    9.977   .     S
V27     Er51    8.456   .     S
V27     Er41    8.456   .     S
V28     V91    10.328   1_556     S
V28     V92    10.328   .     S
V28     V88    10.328   .     S
V28     V84    10.328   .     S
V28     Er76    9.977   .     S
V28     Er58    9.977   .     S
V28     Er68    9.977   .     S
V28     Er106    9.977   .     S
V28     Er52    8.456   .     S
V28     Er42    8.456   .     S
V29     V94    10.328   .     S
V29     V93    10.328   .     S
V29     V81    10.328   1_655     S
V29     V85    10.328   .     S
V29     Er77    9.977   .     S
V29     Er63    9.977   1_545     S
V29     Er69    9.977   .     S
V29     Er111    9.977   1_545     S
V29     Er53    8.456   .     S
V29     Er7    8.456   1_545     S
V29     Er47    8.456   1_545     S
V30     V93    10.328   1_556     S
V30     V94    10.328   .     S
V30     V82    10.328   1_655     S
V30     V86    10.328   .     S
V30     Er78    9.977   .     S
V30     Er64    9.977   1_545     S
V30     Er70    9.977   .     S
V30     Er112    9.977   1_545     S
V30     Er54    8.456   .     S
V30     Er8    8.456   1_545     S
V30     Er48    8.456   1_545     S
V31     V96    10.328   .     S
V31     V95    10.328   .     S
V31     V83    10.328   1_655     S
V31     V87    10.328   .     S
V31     Er79    9.977   .     S
V31     Er61    9.977   .     S
V31     Er71    9.977   .     S
V31     Er109    9.977   .     S
V31     Er55    8.456   .     S
V31     Er45    8.456   .     S
V32     V95    10.328   1_556     S
V32     V96    10.328   .     S
V32     V84    10.328   1_655     S
V32     V88    10.328   .     S
V32     Er80    9.977   .     S
V32     Er62    9.977   .     S
V32     Er72    9.977   .     S
V32     Er110    9.977   .     S
V32     Er56    8.456   .     S
V32     Er46    8.456   .     S
V33     V89    10.328   .     S
V33     V91    10.328   .     S
V33     V101    10.328   .     S
V33     V97    10.328   .     S
V33     Er106    9.977   1_554     S
V33     Er73    9.977   .     S
V33     Er66    9.977   1_554     S
V33     Er57    9.977   .     S
V33     Er49    8.456   .     S
V33     Er41    8.456   .     S
V33     Er18    8.456   1_554     S
V33     Er2    8.456   1_554     S
V34     V90    10.328   .     S
V34     V92    10.328   .     S
V34     V102    10.328   .     S
V34     V98    10.328   .     S
V34     Er105    9.977   .     S
V34     Er74    9.977   .     S
V34     Er65    9.977   .     S
V34     Er58    9.977   .     S
V34     Er50    8.456   .     S
V34     Er42    8.456   .     S
V35     V91    10.328   .     S
V35     V89    10.328   1_565     S
V35     V103    10.328   .     S
V35     V99    10.328   .     S
V35     Er108    9.977   1_554     S
V35     Er75    9.977   .     S
V35     Er68    9.977   1_554     S
V35     Er59    9.977   .     S
V35     Er51    8.456   .     S
V35     Er43    8.456   .     S
V35     Er20    8.456   1_554     S
V35     Er4    8.456   1_554     S
V36     V92    10.328   .     S
V36     V90    10.328   1_565     S
V36     V104    10.328   .     S
V36     V100    10.328   .     S
V36     Er107    9.977   .     S
V36     Er76    9.977   .     S
V36     Er67    9.977   .     S
V36     Er60    9.977   .     S
V36     Er52    8.456   .     S
V36     Er44    8.456   .     S
V37     V93    10.328   .     S
V37     V95    10.328   .     S
V37     V97    10.328   1_655     S
V37     V101    10.328   .     S
V37     Er110    9.977   1_554     S
V37     Er77    9.977   .     S
V37     Er70    9.977   1_554     S
V37     Er61    9.977   .     S
V37     Er53    8.456   .     S
V37     Er45    8.456   .     S
V37     Er22    8.456   1_554     S
V37     Er6    8.456   1_554     S
V38     V94    10.328   .     S
V38     V96    10.328   .     S
V38     V98    10.328   1_655     S
V38     V102    10.328   .     S
V38     Er109    9.977   .     S
V38     Er78    9.977   .     S
V38     Er69    9.977   .     S
V38     Er62    9.977   .     S
V38     Er54    8.456   .     S
V38     Er46    8.456   .     S
V39     V95    10.328   .     S
V39     V93    10.328   1_565     S
V39     V99    10.328   1_655     S
V39     V103    10.328   .     S
V39     Er112    9.977   1_554     S
V39     Er79    9.977   .     S
V39     Er72    9.977   1_554     S
V39     Er63    9.977   .     S
V39     Er55    8.456   .     S
V39     Er47    8.456   .     S
V39     Er24    8.456   1_554     S
V39     Er8    8.456   1_554     S
V40     V96    10.328   .     S
V40     V94    10.328   1_565     S
V40     V100    10.328   1_655     S
V40     V104    10.328   .     S
V40     Er111    9.977   .     S
V40     Er80    9.977   .     S
V40     Er71    9.977   .     S
V40     Er64    9.977   .     S
V40     Er56    8.456   .     S
V40     Er48    8.456   .     S
Er41     V91    9.977   .     S
Er41     V101    9.977   .     S
Er41     V87    9.977   .     S
Er41     Er106    11.018   1_554     S
Er41     Er61    11.018   .     S
Er41     Er75    11.018   .     S
Er41     Er105    11.018   .     S
Er41     Er73    11.018   .     S
Er41     Er57    11.018   .     S
Er41     Er49    10.768   .     S
Er42     V92    9.977   .     S
Er42     V102    9.977   .     S
Er42     V88    9.977   .     S
Er42     Er105    11.018   .     S
Er42     Er62    11.018   .     S
Er42     Er76    11.018   .     S
Er42     Er106    11.018   .     S
Er42     Er74    11.018   .     S
Er42     Er58    11.018   .     S
Er42     Er50    10.768   .     S
Er43     V89    9.977   1_565     S
Er43     V103    9.977   .     S
Er43     V85    9.977   1_565     S
Er43     Er108    11.018   1_554     S
Er43     Er63    11.018   .     S
Er43     Er73    11.018   1_565     S
Er43     Er107    11.018   .     S
Er43     Er75    11.018   .     S
Er43     Er59    11.018   .     S
Er43     V25    8.456   1_565     S
Er43     Er51    10.768   .     S
Er44     V90    9.977   1_565     S
Er44     V104    9.977   .     S
Er44     V86    9.977   1_565     S
Er44     Er107    11.018   .     S
Er44     Er64    11.018   .     S
Er44     Er74    11.018   1_565     S
Er44     Er108    11.018   .     S
Er44     Er76    11.018   .     S
Er44     Er60    11.018   .     S
Er44     V26    8.456   1_565     S
Er44     Er52    10.768   .     S
Er45     V95    9.977   .     S
Er45     V97    9.977   1_655     S
Er45     V83    9.977   1_655     S
Er45     Er110    11.018   1_554     S
Er45     Er57    11.018   1_655     S
Er45     Er79    11.018   .     S
Er45     Er109    11.018   .     S
Er45     Er77    11.018   .     S
Er45     Er61    11.018   .     S
Er45     V9    8.456   1_655     S
Er45     Er53    10.768   .     S
Er46     V96    9.977   .     S
Er46     V98    9.977   1_655     S
Er46     V84    9.977   1_655     S
Er46     Er109    11.018   .     S
Er46     Er58    11.018   1_655     S
Er46     Er80    11.018   .     S
Er46     Er110    11.018   .     S
Er46     Er78    11.018   .     S
Er46     Er62    11.018   .     S
Er46     V10    8.456   1_655     S
Er46     Er54    10.768   .     S
Er47     V93    9.977   1_565     S
Er47     V99    9.977   1_655     S
Er47     V81    9.977   1_665     S
Er47     Er112    11.018   1_554     S
Er47     Er59    11.018   1_655     S
Er47     Er77    11.018   1_565     S
Er47     Er111    11.018   .     S
Er47     Er79    11.018   .     S
Er47     Er63    11.018   .     S
Er47     V11    8.456   1_655     S
Er47     V29    8.456   1_565     S
Er47     Er55    10.768   .     S
Er48     V94    9.977   1_565     S
Er48     V100    9.977   1_655     S
Er48     V82    9.977   1_665     S
Er48     Er111    11.018   .     S
Er48     Er60    11.018   1_655     S
Er48     Er78    11.018   1_565     S
Er48     Er112    11.018   .     S
Er48     Er80    11.018   .     S
Er48     Er64    11.018   .     S
Er48     V12    8.456   1_655     S
Er48     V30    8.456   1_565     S
Er48     Er56    10.768   .     S
Er49     V89    9.977   .     S
Er49     V97    9.977   .     S
Er49     V81    9.977   .     S
Er49     Er66    11.018   1_554     S
Er49     Er77    11.018   1_455     S
Er49     Er59    11.018   1_545     S
Er49     Er65    11.018   .     S
Er49     Er57    11.018   .     S
Er49     Er73    11.018   .     S
Er50     V90    9.977   .     S
Er50     V98    9.977   .     S
Er50     V82    9.977   .     S
Er50     Er65    11.018   .     S
Er50     Er78    11.018   1_455     S
Er50     Er60    11.018   1_545     S
Er50     Er66    11.018   .     S
Er50     Er58    11.018   .     S
Er50     Er74    11.018   .     S
Er51     V91    9.977   .     S
Er51     V99    9.977   .     S
Er51     V83    9.977   .     S
Er51     Er68    11.018   1_554     S
Er51     Er79    11.018   1_455     S
Er51     Er57    11.018   .     S
Er51     Er67    11.018   .     S
Er51     Er59    11.018   .     S
Er51     Er75    11.018   .     S
Er52     V92    9.977   .     S
Er52     V100    9.977   .     S
Er52     V84    9.977   .     S
Er52     Er67    11.018   .     S
Er52     Er80    11.018   1_455     S
Er52     Er58    11.018   .     S
Er52     Er68    11.018   .     S
Er52     Er60    11.018   .     S
Er52     Er76    11.018   .     S
Er53     V93    9.977   .     S
Er53     V101    9.977   .     S
Er53     V85    9.977   .     S
Er53     Er70    11.018   1_554     S
Er53     Er73    11.018   .     S
Er53     Er63    11.018   1_545     S
Er53     Er69    11.018   .     S
Er53     Er61    11.018   .     S
Er53     Er77    11.018   .     S
Er54     V94    9.977   .     S
Er54     V102    9.977   .     S
Er54     V86    9.977   .     S
Er54     Er69    11.018   .     S
Er54     Er74    11.018   .     S
Er54     Er64    11.018   1_545     S
Er54     Er70    11.018   .     S
Er54     Er62    11.018   .     S
Er54     Er78    11.018   .     S
Er55     V95    9.977   .     S
Er55     V103    9.977   .     S
Er55     V87    9.977   .     S
Er55     Er72    11.018   1_554     S
Er55     Er75    11.018   .     S
Er55     Er61    11.018   .     S
Er55     Er71    11.018   .     S
Er55     Er63    11.018   .     S
Er55     Er79    11.018   .     S
Er56     V96    9.977   .     S
Er56     V104    9.977   .     S
Er56     V88    9.977   .     S
Er56     Er71    11.018   .     S
Er56     Er76    11.018   .     S
Er56     Er62    11.018   .     S
Er56     Er72    11.018   .     S
Er56     Er64    11.018   .     S
Er56     Er80    11.018   .     S
Er57     Er2    11.018   1_554     S
Er57     Er45    11.018   1_455     S
Er57     V83    8.456   .     S
Er57     V91    8.456   .     S
Er57     V97    8.456   .     S
Er57     Er68    10.768   1_554     S
Er57     Er79    10.768   1_455     S
Er57     Er110    10.768   1_454     S
Er58     Er46    11.018   1_455     S
Er58     V84    8.456   .     S
Er58     V92    8.456   .     S
Er58     V98    8.456   .     S
Er58     Er67    10.768   .     S
Er58     Er80    10.768   1_455     S
Er58     Er109    10.768   1_455     S
Er59     V25    9.977   1_565     S
Er59     Er4    11.018   1_554     S
Er59     Er47    11.018   1_455     S
Er59     Er49    11.018   1_565     S
Er59     V81    8.456   1_565     S
Er59     V89    8.456   1_565     S
Er59     V99    8.456   .     S
Er59     Er66    10.768   1_564     S
Er59     Er77    10.768   1_465     S
Er59     Er112    10.768   1_454     S
Er60     V26    9.977   1_565     S
Er60     Er48    11.018   1_455     S
Er60     Er50    11.018   1_565     S
Er60     V82    8.456   1_565     S
Er60     V90    8.456   1_565     S
Er60     V100    8.456   .     S
Er60     Er65    10.768   1_565     S
Er60     Er78    10.768   1_465     S
Er60     Er111    10.768   1_455     S
Er61     Er6    11.018   1_554     S
Er61     V87    8.456   .     S
Er61     V95    8.456   .     S
Er61     V101    8.456   .     S
Er61     Er72    10.768   1_554     S
Er61     Er75    10.768   .     S
Er61     Er106    10.768   1_554     S
Er62     V88    8.456   .     S
Er62     V96    8.456   .     S
Er62     V102    8.456   .     S
Er62     Er71    10.768   .     S
Er62     Er76    10.768   .     S
Er62     Er105    10.768   .     S
Er63     V29    9.977   1_565     S
Er63     Er8    11.018   1_554     S
Er63     Er53    11.018   1_565     S
Er63     V85    8.456   1_565     S
Er63     V93    8.456   1_565     S
Er63     V103    8.456   .     S
Er63     Er70    10.768   1_564     S
Er63     Er73    10.768   1_565     S
Er63     Er108    10.768   1_554     S
Er64     V30    9.977   1_565     S
Er64     Er54    11.018   1_565     S
Er64     V86    8.456   1_565     S
Er64     V94    8.456   1_565     S
Er64     V104    8.456   .     S
Er64     Er69    10.768   1_565     S
Er64     Er74    10.768   1_565     S
Er64     Er107    10.768   .     S
Er65     Er3    11.018   1_545     S
Er65     Er21    11.018   1_455     S
Er65     V90    8.456   .     S
Er65     V98    8.456   .     S
Er65     V81    8.456   .     S
Er65     Er60    10.768   1_545     S
Er65     Er78    10.768   1_455     S
Er65     Er111    10.768   1_445     S
Er66     V33    9.977   1_556     S
Er66     Er49    11.018   1_556     S
Er66     Er4    11.018   1_545     S
Er66     Er22    11.018   1_455     S
Er66     V89    8.456   1_556     S
Er66     V97    8.456   1_556     S
Er66     V82    8.456   .     S
Er66     Er59    10.768   1_546     S
Er66     Er77    10.768   1_456     S
Er66     Er112    10.768   1_445     S
Er67     Er23    11.018   1_455     S
Er67     V92    8.456   .     S
Er67     V100    8.456   .     S
Er67     V83    8.456   .     S
Er67     Er80    10.768   1_455     S
Er67     Er109    10.768   1_455     S
Er68     V35    9.977   1_556     S
Er68     Er51    11.018   1_556     S
Er68     Er24    11.018   1_455     S
Er68     V91    8.456   1_556     S
Er68     V99    8.456   1_556     S
Er68     V84    8.456   .     S
Er68     Er57    10.768   1_556     S
Er68     Er79    10.768   1_456     S
Er68     Er110    10.768   1_455     S
Er69     Er7    11.018   1_545     S
Er69     V94    8.456   .     S
Er69     V102    8.456   .     S
Er69     V85    8.456   .     S
Er69     Er64    10.768   1_545     S
Er69     Er74    10.768   .     S
Er69     Er107    10.768   1_545     S
Er70     V37    9.977   1_556     S
Er70     Er53    11.018   1_556     S
Er70     Er8    11.018   1_545     S
Er70     V93    8.456   1_556     S
Er70     V101    8.456   1_556     S
Er70     V86    8.456   .     S
Er70     Er63    10.768   1_546     S
Er70     Er73    10.768   1_556     S
Er70     Er108    10.768   1_545     S
Er71     V96    8.456   .     S
Er71     V104    8.456   .     S
Er71     V87    8.456   .     S
Er71     Er76    10.768   .     S
Er71     Er105    10.768   .     S
Er72     V39    9.977   1_556     S
Er72     Er55    11.018   1_556     S
Er72     V95    8.456   1_556     S
Er72     V103    8.456   1_556     S
Er72     V88    8.456   .     S
Er72     Er61    10.768   1_556     S
Er72     Er75    10.768   1_556     S
Er72     Er106    10.768   .     S
Er73     Er18    11.018   1_554     S
Er73     Er43    11.018   1_545     S
Er73     V101    8.456   .     S
Er73     V85    8.456   .     S
Er73     V89    8.456   .     S
Er73     Er70    10.768   1_554     S
Er73     Er63    10.768   1_545     S
Er73     Er108    10.768   1_544     S
Er74     Er44    11.018   1_545     S
Er74     V102    8.456   .     S
Er74     V86    8.456   .     S
Er74     V90    8.456   .     S
Er74     Er64    10.768   1_545     S
Er74     Er107    10.768   1_545     S
Er75     Er20    11.018   1_554     S
Er75     V103    8.456   .     S
Er75     V87    8.456   .     S
Er75     V91    8.456   .     S
Er75     Er72    10.768   1_554     S
Er75     Er106    10.768   1_554     S
Er76     V104    8.456   .     S
Er76     V88    8.456   .     S
Er76     V92    8.456   .     S
Er76     Er105    10.768   .     S
Er77     V9    9.977   1_655     S
Er77     Er22    11.018   1_554     S
Er77     Er49    11.018   1_655     S
Er77     Er47    11.018   1_545     S
Er77     V97    8.456   1_655     S
Er77     V81    8.456   1_655     S
Er77     V93    8.456   .     S
Er77     Er66    10.768   1_654     S
Er77     Er59    10.768   1_645     S
Er77     Er112    10.768   1_544     S
Er78     V10    9.977   1_655     S
Er78     Er50    11.018   1_655     S
Er78     Er48    11.018   1_545     S
Er78     V98    8.456   1_655     S
Er78     V82    8.456   1_655     S
Er78     V94    8.456   .     S
Er78     Er65    10.768   1_655     S
Er78     Er60    10.768   1_645     S
Er78     Er111    10.768   1_545     S
Er79     V11    9.977   1_655     S
Er79     Er24    11.018   1_554     S
Er79     Er51    11.018   1_655     S
Er79     V99    8.456   1_655     S
Er79     V83    8.456   1_655     S
Er79     V95    8.456   .     S
Er79     Er68    10.768   1_654     S
Er79     Er57    10.768   1_655     S
Er79     Er110    10.768   1_554     S
Er80     V12    9.977   1_655     S
Er80     Er52    11.018   1_655     S
Er80     V100    8.456   1_655     S
Er80     V84    8.456   1_655     S
Er80     V96    8.456   .     S
Er80     Er67    10.768   1_655     S
Er80     Er58    10.768   1_655     S
Er80     Er109    10.768   .     S
V81     V29    10.328   1_455     S
V81     V11    10.328   1_545     S
V81     Er21    9.977   1_455     S
V81     Er3    9.977   1_545     S
V81     Er47    9.977   1_445     S
V81     Er59    8.456   1_545     S
V81     Er77    8.456   1_455     S
V81     Er111    8.456   1_445     S
V82     V30    10.328   1_455     S
V82     V12    10.328   1_545     S
V82     Er22    9.977   1_455     S
V82     Er4    9.977   1_545     S
V82     Er48    9.977   1_445     S
V82     Er60    8.456   1_545     S
V82     Er78    8.456   1_455     S
V82     Er112    8.456   1_445     S
V83     V31    10.328   1_455     S
V83     Er23    9.977   1_455     S
V83     Er45    9.977   1_455     S
V83     Er79    8.456   1_455     S
V83     Er109    8.456   1_455     S
V84     V32    10.328   1_455     S
V84     Er24    9.977   1_455     S
V84     Er46    9.977   1_455     S
V84     Er80    8.456   1_455     S
V84     Er110    8.456   1_455     S
V85     V15    10.328   1_545     S
V85     Er7    9.977   1_545     S
V85     Er43    9.977   1_545     S
V85     Er63    8.456   1_545     S
V85     Er107    8.456   1_545     S
V86     V16    10.328   1_545     S
V86     Er8    9.977   1_545     S
V86     Er44    9.977   1_545     S
V86     Er64    8.456   1_545     S
V86     Er108    8.456   1_545     S
V87     Er105    8.456   .     S
V88     Er106    8.456   .     S
V89     V26    10.328   1_554     S
V89     V35    10.328   1_545     S
V89     Er18    9.977   1_554     S
V89     Er43    9.977   1_545     S
V89     Er4    9.977   1_544     S
V89     Er59    8.456   1_545     S
V89     Er66    8.456   1_554     S
V89     Er108    8.456   1_544     S
V90     V36    10.328   1_545     S
V90     Er44    9.977   1_545     S
V90     Er3    9.977   1_545     S
V90     Er60    8.456   1_545     S
V90     Er107    8.456   1_545     S
V91     V28    10.328   1_554     S
V91     Er20    9.977   1_554     S
V91     Er2    9.977   1_554     S
V91     Er68    8.456   1_554     S
V91     Er106    8.456   1_554     S
V92     Er105    8.456   .     S
V93     V30    10.328   1_554     S
V93     V39    10.328   1_545     S
V93     Er22    9.977   1_554     S
V93     Er47    9.977   1_545     S
V93     Er8    9.977   1_544     S
V93     Er63    8.456   1_545     S
V93     Er70    8.456   1_554     S
V93     Er112    8.456   1_544     S
V94     V40    10.328   1_545     S
V94     Er48    9.977   1_545     S
V94     Er7    9.977   1_545     S
V94     Er64    8.456   1_545     S
V94     Er111    8.456   1_545     S
V95     V32    10.328   1_554     S
V95     Er24    9.977   1_554     S
V95     Er6    9.977   1_554     S
V95     Er72    8.456   1_554     S
V95     Er110    8.456   1_554     S
V96     Er109    8.456   .     S
V97     V37    10.328   1_455     S
V97     V10    10.328   1_554     S
V97     Er45    9.977   1_455     S
V97     Er2    9.977   1_554     S
V97     Er22    9.977   1_454     S
V97     Er66    8.456   1_554     S
V97     Er77    8.456   1_455     S
V97     Er110    8.456   1_454     S
V98     V38    10.328   1_455     S
V98     Er46    9.977   1_455     S
V98     Er21    9.977   1_455     S
V98     Er78    8.456   1_455     S
V98     Er109    8.456   1_455     S
V99     V39    10.328   1_455     S
V99     V12    10.328   1_554     S
V99     Er47    9.977   1_455     S
V99     Er4    9.977   1_554     S
V99     Er24    9.977   1_454     S
V99     Er68    8.456   1_554     S
V99     Er79    8.456   1_455     S
V99     Er112    8.456   1_454     S
V100     V40    10.328   1_455     S
V100     Er48    9.977   1_455     S
V100     Er23    9.977   1_455     S
V100     Er80    8.456   1_455     S
V100     Er111    8.456   1_455     S
V101     V14    10.328   1_554     S
V101     Er6    9.977   1_554     S
V101     Er18    9.977   1_554     S
V101     Er70    8.456   1_554     S
V101     Er106    8.456   1_554     S
V102     Er105    8.456   .     S
V103     V16    10.328   1_554     S
V103     Er8    9.977   1_554     S
V103     Er20    9.977   1_554     S
V103     Er72    8.456   1_554     S
V103     Er108    8.456   1_554     S
V104     Er107    8.456   .     S
Er106     V33    9.977   1_556     S
Er106     Er41    11.018   1_556     S
Er106     V91    8.456   1_556     S
Er106     V101    8.456   1_556     S
Er106     Er75    10.768   1_556     S
Er106     Er61    10.768   1_556     S
Er107     V25    9.977   1_565     S
Er107     Er17    11.018   1_565     S
Er107     V85    8.456   1_565     S
Er107     V90    8.456   1_565     S
Er107     Er74    10.768   1_565     S
Er107     Er69    10.768   1_565     S
Er108     V35    9.977   1_556     S
Er108     V26    9.977   1_565     S
Er108     Er43    11.018   1_556     S
Er108     Er18    11.018   1_565     S
Er108     V86    8.456   1_565     S
Er108     V89    8.456   1_566     S
Er108     V103    8.456   1_556     S
Er108     Er73    10.768   1_566     S
Er108     Er63    10.768   1_556     S
Er108     Er70    10.768   1_565     S
Er109     V9    9.977   1_655     S
Er109     Er1    11.018   1_655     S
Er109     V83    8.456   1_655     S
Er109     V98    8.456   1_655     S
Er109     Er58    10.768   1_655     S
Er109     Er67    10.768   1_655     S
Er110     V10    9.977   1_655     S
Er110     V37    9.977   1_556     S
Er110     Er45    11.018   1_556     S
Er110     Er2    11.018   1_655     S
Er110     V84    8.456   1_655     S
Er110     V95    8.456   1_556     S
Er110     V97    8.456   1_656     S
Er110     Er79    10.768   1_556     S
Er110     Er57    10.768   1_656     S
Er110     Er68    10.768   1_655     S
Er111     V11    9.977   1_655     S
Er111     V29    9.977   1_565     S
Er111     Er21    11.018   1_565     S
Er111     Er3    11.018   1_655     S
Er111     V81    8.456   1_665     S
Er111     V94    8.456   1_565     S
Er111     V100    8.456   1_655     S
Er111     Er78    10.768   1_565     S
Er111     Er60    10.768   1_655     S
Er111     Er65    10.768   1_665     S
Er112     V12    9.977   1_655     S
Er112     V39    9.977   1_556     S
Er112     V30    9.977   1_565     S
Er112     Er47    11.018   1_556     S
Er112     Er22    11.018   1_565     S
Er112     Er4    11.018   1_655     S
Er112     V82    8.456   1_665     S
Er112     V93    8.456   1_566     S
Er112     V99    8.456   1_656     S
Er112     Er77    10.768   1_566     S
Er112     Er59    10.768   1_656     S
Er112     Er66    10.768   1_665     S
