data_ddy
_audit_creation_date              2019-12-31
_audit_creation_method            'Pymatgen'
_symmetry_space_group_name_H-M    'P1'
_symmetry_Int_Tables_number       1
loop_
_symmetry_equiv_pos_as_xyz
  x,y,z
_cell_length_a                    29.5164
_cell_length_b                    29.5164
_cell_length_c                    29.5164
_cell_angle_alpha                 90.0
_cell_angle_beta                 90.0
_cell_angle_gamma                 90.0
loop_
_atom_site_label
_atom_site_type_symbol
_atom_site_fract_x
_atom_site_fract_y
_atom_site_fract_z
Er1     Er     0.1667   0.2038   0.0
Er2     Er     0.1667   0.2038   0.3333
Er3     Er     0.1667   0.2038   0.6667
Er4     Er     0.1667   0.5372   0.0
Er5     Er     0.1667   0.5372   0.3333
Er6     Er     0.1667   0.5372   0.6667
Er7     Er     0.1667   0.8705   0.0
Er8     Er     0.1667   0.8705   0.3333
Er9     Er     0.1667   0.8705   0.6667
Er10     Er     0.5   0.2038   0.0
Er11     Er     0.5   0.2038   0.3333
Er12     Er     0.5   0.2038   0.6667
Er13     Er     0.5   0.5372   0.0
Er14     Er     0.5   0.5372   0.3333
Er15     Er     0.5   0.5372   0.6667
Er16     Er     0.5   0.8705   0.0
Er17     Er     0.5   0.8705   0.3333
Er18     Er     0.5   0.8705   0.6667
Er19     Er     0.8333   0.2038   0.0
Er20     Er     0.8333   0.2038   0.3333
Er21     Er     0.8333   0.2038   0.6667
Er22     Er     0.8333   0.5372   0.0
Er23     Er     0.8333   0.5372   0.3333
Er24     Er     0.8333   0.5372   0.6667
Er25     Er     0.8333   0.8705   0.0
Er26     Er     0.8333   0.8705   0.3333
Er27     Er     0.8333   0.8705   0.6667
Er28     Er     0.2038   0.1667   0.0
Er29     Er     0.2038   0.1667   0.3333
Er30     Er     0.2038   0.1667   0.6667
Er31     Er     0.2038   0.5   0.0
Er32     Er     0.2038   0.5   0.3333
Er33     Er     0.2038   0.5   0.6667
Er34     Er     0.2038   0.8333   0.0
Er35     Er     0.2038   0.8333   0.3333
Er36     Er     0.2038   0.8333   0.6667
Er37     Er     0.5372   0.1667   0.0
Er38     Er     0.5372   0.1667   0.3333
Er39     Er     0.5372   0.1667   0.6667
Er40     Er     0.5372   0.5   0.0
Er41     Er     0.5372   0.5   0.3333
Er42     Er     0.5372   0.5   0.6667
Er43     Er     0.5372   0.8333   0.0
Er44     Er     0.5372   0.8333   0.3333
Er45     Er     0.5372   0.8333   0.6667
Er46     Er     0.8705   0.1667   0.0
Er47     Er     0.8705   0.1667   0.3333
Er48     Er     0.8705   0.1667   0.6667
Er49     Er     0.8705   0.5   0.0
Er50     Er     0.8705   0.5   0.3333
Er51     Er     0.8705   0.5   0.6667
Er52     Er     0.8705   0.8333   0.0
Er53     Er     0.8705   0.8333   0.3333
Er54     Er     0.8705   0.8333   0.6667
Er55     Er     0.1667   0.1295   0.0
Er56     Er     0.1667   0.1295   0.3333
Er57     Er     0.1667   0.1295   0.6667
Er58     Er     0.1667   0.4628   0.0
Er59     Er     0.1667   0.4628   0.3333
Er60     Er     0.1667   0.4628   0.6667
Er61     Er     0.1667   0.7962   0.0
Er62     Er     0.1667   0.7962   0.3333
Er63     Er     0.1667   0.7962   0.6667
Er64     Er     0.5   0.1295   0.0
Er65     Er     0.5   0.1295   0.3333
Er66     Er     0.5   0.1295   0.6667
Er67     Er     0.5   0.4628   0.0
Er68     Er     0.5   0.4628   0.3333
Er69     Er     0.5   0.4628   0.6667
Er70     Er     0.5   0.7962   0.0
Er71     Er     0.5   0.7962   0.3333
Er72     Er     0.5   0.7962   0.6667
Er73     Er     0.8333   0.1295   0.0
Er74     Er     0.8333   0.1295   0.3333
Er75     Er     0.8333   0.1295   0.6667
Er76     Er     0.8333   0.4628   0.0
Er77     Er     0.8333   0.4628   0.3333
Er78     Er     0.8333   0.4628   0.6667
Er79     Er     0.8333   0.7962   0.0
Er80     Er     0.8333   0.7962   0.3333
Er81     Er     0.8333   0.7962   0.6667
Er82     Er     0.1295   0.1667   0.0
Er83     Er     0.1295   0.1667   0.3333
Er84     Er     0.1295   0.1667   0.6667
Er85     Er     0.1295   0.5   0.0
Er86     Er     0.1295   0.5   0.3333
Er87     Er     0.1295   0.5   0.6667
Er88     Er     0.1295   0.8333   0.0
Er89     Er     0.1295   0.8333   0.3333
Er90     Er     0.1295   0.8333   0.6667
Er91     Er     0.4628   0.1667   0.0
Er92     Er     0.4628   0.1667   0.3333
Er93     Er     0.4628   0.1667   0.6667
Er94     Er     0.4628   0.5   0.0
Er95     Er     0.4628   0.5   0.3333
Er96     Er     0.4628   0.5   0.6667
Er97     Er     0.4628   0.8333   0.0
Er98     Er     0.4628   0.8333   0.3333
Er99     Er     0.4628   0.8333   0.6667
Er100     Er     0.7962   0.1667   0.0
Er101     Er     0.7962   0.1667   0.3333
Er102     Er     0.7962   0.1667   0.6667
Er103     Er     0.7962   0.5   0.0
Er104     Er     0.7962   0.5   0.3333
Er105     Er     0.7962   0.5   0.6667
Er106     Er     0.7962   0.8333   0.0
Er107     Er     0.7962   0.8333   0.3333
Er108     Er     0.7962   0.8333   0.6667
Er109     Er     0.0   0.1667   0.2038
Er110     Er     0.0   0.1667   0.5372
Er111     Er     0.0   0.1667   0.8705
Er112     Er     0.0   0.5   0.2038
Er113     Er     0.0   0.5   0.5372
Er114     Er     0.0   0.5   0.8705
Er115     Er     0.0   0.8333   0.2038
Er116     Er     0.0   0.8333   0.5372
Er117     Er     0.0   0.8333   0.8705
Er118     Er     0.3333   0.1667   0.2038
Er119     Er     0.3333   0.1667   0.5372
Er120     Er     0.3333   0.1667   0.8705
Er121     Er     0.3333   0.5   0.2038
Er122     Er     0.3333   0.5   0.5372
Er123     Er     0.3333   0.5   0.8705
Er124     Er     0.3333   0.8333   0.2038
Er125     Er     0.3333   0.8333   0.5372
Er126     Er     0.3333   0.8333   0.8705
Er127     Er     0.6667   0.1667   0.2038
Er128     Er     0.6667   0.1667   0.5372
Er129     Er     0.6667   0.1667   0.8705
Er130     Er     0.6667   0.5   0.2038
Er131     Er     0.6667   0.5   0.5372
Er132     Er     0.6667   0.5   0.8705
Er133     Er     0.6667   0.8333   0.2038
Er134     Er     0.6667   0.8333   0.5372
Er135     Er     0.6667   0.8333   0.8705
Er136     Er     0.0   0.2038   0.1667
Er137     Er     0.0   0.2038   0.5
Er138     Er     0.0   0.2038   0.8333
Er139     Er     0.0   0.5372   0.1667
Er140     Er     0.0   0.5372   0.5
Er141     Er     0.0   0.5372   0.8333
Er142     Er     0.0   0.8705   0.1667
Er143     Er     0.0   0.8705   0.5
Er144     Er     0.0   0.8705   0.8333
Er145     Er     0.3333   0.2038   0.1667
Er146     Er     0.3333   0.2038   0.5
Er147     Er     0.3333   0.2038   0.8333
Er148     Er     0.3333   0.5372   0.1667
Er149     Er     0.3333   0.5372   0.5
Er150     Er     0.3333   0.5372   0.8333
Er151     Er     0.3333   0.8705   0.1667
Er152     Er     0.3333   0.8705   0.5
Er153     Er     0.3333   0.8705   0.8333
Er154     Er     0.6667   0.2038   0.1667
Er155     Er     0.6667   0.2038   0.5
Er156     Er     0.6667   0.2038   0.8333
Er157     Er     0.6667   0.5372   0.1667
Er158     Er     0.6667   0.5372   0.5
Er159     Er     0.6667   0.5372   0.8333
Er160     Er     0.6667   0.8705   0.1667
Er161     Er     0.6667   0.8705   0.5
Er162     Er     0.6667   0.8705   0.8333
Er163     Er     0.0   0.1295   0.1667
Er164     Er     0.0   0.1295   0.5
Er165     Er     0.0   0.1295   0.8333
Er166     Er     0.0   0.4628   0.1667
Er167     Er     0.0   0.4628   0.5
Er168     Er     0.0   0.4628   0.8333
Er169     Er     0.0   0.7962   0.1667
Er170     Er     0.0   0.7962   0.5
Er171     Er     0.0   0.7962   0.8333
Er172     Er     0.3333   0.1295   0.1667
Er173     Er     0.3333   0.1295   0.5
Er174     Er     0.3333   0.1295   0.8333
Er175     Er     0.3333   0.4628   0.1667
Er176     Er     0.3333   0.4628   0.5
Er177     Er     0.3333   0.4628   0.8333
Er178     Er     0.3333   0.7962   0.1667
Er179     Er     0.3333   0.7962   0.5
Er180     Er     0.3333   0.7962   0.8333
Er181     Er     0.6667   0.1295   0.1667
Er182     Er     0.6667   0.1295   0.5
Er183     Er     0.6667   0.1295   0.8333
Er184     Er     0.6667   0.4628   0.1667
Er185     Er     0.6667   0.4628   0.5
Er186     Er     0.6667   0.4628   0.8333
Er187     Er     0.6667   0.7962   0.1667
Er188     Er     0.6667   0.7962   0.5
Er189     Er     0.6667   0.7962   0.8333
Er190     Er     0.0   0.1667   0.1295
Er191     Er     0.0   0.1667   0.4628
Er192     Er     0.0   0.1667   0.7962
Er193     Er     0.0   0.5   0.1295
Er194     Er     0.0   0.5   0.4628
Er195     Er     0.0   0.5   0.7962
Er196     Er     0.0   0.8333   0.1295
Er197     Er     0.0   0.8333   0.4628
Er198     Er     0.0   0.8333   0.7962
Er199     Er     0.3333   0.1667   0.1295
Er200     Er     0.3333   0.1667   0.4628
Er201     Er     0.3333   0.1667   0.7962
Er202     Er     0.3333   0.5   0.1295
Er203     Er     0.3333   0.5   0.4628
Er204     Er     0.3333   0.5   0.7962
Er205     Er     0.3333   0.8333   0.1295
Er206     Er     0.3333   0.8333   0.4628
Er207     Er     0.3333   0.8333   0.7962
Er208     Er     0.6667   0.1667   0.1295
Er209     Er     0.6667   0.1667   0.4628
Er210     Er     0.6667   0.1667   0.7962
Er211     Er     0.6667   0.5   0.1295
Er212     Er     0.6667   0.5   0.4628
Er213     Er     0.6667   0.5   0.7962
Er214     Er     0.6667   0.8333   0.1295
Er215     Er     0.6667   0.8333   0.4628
Er216     Er     0.6667   0.8333   0.7962
Er217     Er     0.1667   0.0   0.2038
Er218     Er     0.1667   0.0   0.5372
Er219     Er     0.1667   0.0   0.8705
Er220     Er     0.1667   0.3333   0.2038
Er221     Er     0.1667   0.3333   0.5372
Er222     Er     0.1667   0.3333   0.8705
Er223     Er     0.1667   0.6667   0.2038
Er224     Er     0.1667   0.6667   0.5372
Er225     Er     0.1667   0.6667   0.8705
Er226     Er     0.5   0.0   0.2038
Er227     Er     0.5   0.0   0.5372
Er228     Er     0.5   0.0   0.8705
Er229     Er     0.5   0.3333   0.2038
Er230     Er     0.5   0.3333   0.5372
Er231     Er     0.5   0.3333   0.8705
Er232     Er     0.5   0.6667   0.2038
Er233     Er     0.5   0.6667   0.5372
Er234     Er     0.5   0.6667   0.8705
Er235     Er     0.8333   0.0   0.2038
Er236     Er     0.8333   0.0   0.5372
Er237     Er     0.8333   0.0   0.8705
Er238     Er     0.8333   0.3333   0.2038
Er239     Er     0.8333   0.3333   0.5372
Er240     Er     0.8333   0.3333   0.8705
Er241     Er     0.8333   0.6667   0.2038
Er242     Er     0.8333   0.6667   0.5372
Er243     Er     0.8333   0.6667   0.8705
Er244     Er     0.2038   0.0   0.1667
Er245     Er     0.2038   0.0   0.5
Er246     Er     0.2038   0.0   0.8333
Er247     Er     0.2038   0.3333   0.1667
Er248     Er     0.2038   0.3333   0.5
Er249     Er     0.2038   0.3333   0.8333
Er250     Er     0.2038   0.6667   0.1667
Er251     Er     0.2038   0.6667   0.5
Er252     Er     0.2038   0.6667   0.8333
Er253     Er     0.5372   0.0   0.1667
Er254     Er     0.5372   0.0   0.5
Er255     Er     0.5372   0.0   0.8333
Er256     Er     0.5372   0.3333   0.1667
Er257     Er     0.5372   0.3333   0.5
Er258     Er     0.5372   0.3333   0.8333
Er259     Er     0.5372   0.6667   0.1667
Er260     Er     0.5372   0.6667   0.5
Er261     Er     0.5372   0.6667   0.8333
Er262     Er     0.8705   0.0   0.1667
Er263     Er     0.8705   0.0   0.5
Er264     Er     0.8705   0.0   0.8333
Er265     Er     0.8705   0.3333   0.1667
Er266     Er     0.8705   0.3333   0.5
Er267     Er     0.8705   0.3333   0.8333
Er268     Er     0.8705   0.6667   0.1667
Er269     Er     0.8705   0.6667   0.5
Er270     Er     0.8705   0.6667   0.8333
Er271     Er     0.1295   0.0   0.1667
Er272     Er     0.1295   0.0   0.5
Er273     Er     0.1295   0.0   0.8333
Er274     Er     0.1295   0.3333   0.1667
Er275     Er     0.1295   0.3333   0.5
Er276     Er     0.1295   0.3333   0.8333
Er277     Er     0.1295   0.6667   0.1667
Er278     Er     0.1295   0.6667   0.5
Er279     Er     0.1295   0.6667   0.8333
Er280     Er     0.4628   0.0   0.1667
Er281     Er     0.4628   0.0   0.5
Er282     Er     0.4628   0.0   0.8333
Er283     Er     0.4628   0.3333   0.1667
Er284     Er     0.4628   0.3333   0.5
Er285     Er     0.4628   0.3333   0.8333
Er286     Er     0.4628   0.6667   0.1667
Er287     Er     0.4628   0.6667   0.5
Er288     Er     0.4628   0.6667   0.8333
Er289     Er     0.7962   0.0   0.1667
Er290     Er     0.7962   0.0   0.5
Er291     Er     0.7962   0.0   0.8333
Er292     Er     0.7962   0.3333   0.1667
Er293     Er     0.7962   0.3333   0.5
Er294     Er     0.7962   0.3333   0.8333
Er295     Er     0.7962   0.6667   0.1667
Er296     Er     0.7962   0.6667   0.5
Er297     Er     0.7962   0.6667   0.8333
Er298     Er     0.1667   0.0   0.1295
Er299     Er     0.1667   0.0   0.4628
Er300     Er     0.1667   0.0   0.7962
Er301     Er     0.1667   0.3333   0.1295
Er302     Er     0.1667   0.3333   0.4628
Er303     Er     0.1667   0.3333   0.7962
Er304     Er     0.1667   0.6667   0.1295
Er305     Er     0.1667   0.6667   0.4628
Er306     Er     0.1667   0.6667   0.7962
Er307     Er     0.5   0.0   0.1295
Er308     Er     0.5   0.0   0.4628
Er309     Er     0.5   0.0   0.7962
Er310     Er     0.5   0.3333   0.1295
Er311     Er     0.5   0.3333   0.4628
Er312     Er     0.5   0.3333   0.7962
Er313     Er     0.5   0.6667   0.1295
Er314     Er     0.5   0.6667   0.4628
Er315     Er     0.5   0.6667   0.7962
Er316     Er     0.8333   0.0   0.1295
Er317     Er     0.8333   0.0   0.4628
Er318     Er     0.8333   0.0   0.7962
Er319     Er     0.8333   0.3333   0.1295
Er320     Er     0.8333   0.3333   0.4628
Er321     Er     0.8333   0.3333   0.7962
Er322     Er     0.8333   0.6667   0.1295
Er323     Er     0.8333   0.6667   0.4628
Er324     Er     0.8333   0.6667   0.7962
V325     V     0.0   0.0   0.1667
V326     V     0.0   0.0   0.5
V327     V     0.0   0.0   0.8333
V328     V     0.0   0.3333   0.1667
V329     V     0.0   0.3333   0.5
V330     V     0.0   0.3333   0.8333
V331     V     0.0   0.6667   0.1667
V332     V     0.0   0.6667   0.5
V333     V     0.0   0.6667   0.8333
V334     V     0.3333   0.0   0.1667
V335     V     0.3333   0.0   0.5
V336     V     0.3333   0.0   0.8333
V337     V     0.3333   0.3333   0.1667
V338     V     0.3333   0.3333   0.5
V339     V     0.3333   0.3333   0.8333
V340     V     0.3333   0.6667   0.1667
V341     V     0.3333   0.6667   0.5
V342     V     0.3333   0.6667   0.8333
V343     V     0.6667   0.0   0.1667
V344     V     0.6667   0.0   0.5
V345     V     0.6667   0.0   0.8333
V346     V     0.6667   0.3333   0.1667
V347     V     0.6667   0.3333   0.5
V348     V     0.6667   0.3333   0.8333
V349     V     0.6667   0.6667   0.1667
V350     V     0.6667   0.6667   0.5
V351     V     0.6667   0.6667   0.8333
V352     V     0.1667   0.0   0.0
V353     V     0.1667   0.0   0.3333
V354     V     0.1667   0.0   0.6667
V355     V     0.1667   0.3333   0.0
V356     V     0.1667   0.3333   0.3333
V357     V     0.1667   0.3333   0.6667
V358     V     0.1667   0.6667   0.0
V359     V     0.1667   0.6667   0.3333
V360     V     0.1667   0.6667   0.6667
V361     V     0.5   0.0   0.0
V362     V     0.5   0.0   0.3333
V363     V     0.5   0.0   0.6667
V364     V     0.5   0.3333   0.0
V365     V     0.5   0.3333   0.3333
V366     V     0.5   0.3333   0.6667
V367     V     0.5   0.6667   0.0
V368     V     0.5   0.6667   0.3333
V369     V     0.5   0.6667   0.6667
V370     V     0.8333   0.0   0.0
V371     V     0.8333   0.0   0.3333
V372     V     0.8333   0.0   0.6667
V373     V     0.8333   0.3333   0.0
V374     V     0.8333   0.3333   0.3333
V375     V     0.8333   0.3333   0.6667
V376     V     0.8333   0.6667   0.0
V377     V     0.8333   0.6667   0.3333
V378     V     0.8333   0.6667   0.6667
V379     V     0.0   0.1667   0.0
V380     V     0.0   0.1667   0.3333
V381     V     0.0   0.1667   0.6667
V382     V     0.0   0.5   0.0
V383     V     0.0   0.5   0.3333
V384     V     0.0   0.5   0.6667
V385     V     0.0   0.8333   0.0
V386     V     0.0   0.8333   0.3333
V387     V     0.0   0.8333   0.6667
V388     V     0.3333   0.1667   0.0
V389     V     0.3333   0.1667   0.3333
V390     V     0.3333   0.1667   0.6667
V391     V     0.3333   0.5   0.0
V392     V     0.3333   0.5   0.3333
V393     V     0.3333   0.5   0.6667
V394     V     0.3333   0.8333   0.0
V395     V     0.3333   0.8333   0.3333
V396     V     0.3333   0.8333   0.6667
V397     V     0.6667   0.1667   0.0
V398     V     0.6667   0.1667   0.3333
V399     V     0.6667   0.1667   0.6667
V400     V     0.6667   0.5   0.0
V401     V     0.6667   0.5   0.3333
V402     V     0.6667   0.5   0.6667
V403     V     0.6667   0.8333   0.0
V404     V     0.6667   0.8333   0.3333
V405     V     0.6667   0.8333   0.6667
Ti406     Ti     0.1667   0.1667   0.1667
Ti407     Ti     0.1667   0.1667   0.5
Ti408     Ti     0.1667   0.1667   0.8333
Ti409     Ti     0.1667   0.5   0.1667
Ti410     Ti     0.1667   0.5   0.5
Ti411     Ti     0.1667   0.5   0.8333
Ti412     Ti     0.1667   0.8333   0.1667
Ti413     Ti     0.1667   0.8333   0.5
Ti414     Ti     0.1667   0.8333   0.8333
Ti415     Ti     0.5   0.1667   0.1667
Ti416     Ti     0.5   0.1667   0.5
Ti417     Ti     0.5   0.1667   0.8333
Ti418     Ti     0.5   0.5   0.1667
Ti419     Ti     0.5   0.5   0.5
Ti420     Ti     0.5   0.5   0.8333
Ti421     Ti     0.5   0.8333   0.1667
Ti422     Ti     0.5   0.8333   0.5
Ti423     Ti     0.5   0.8333   0.8333
Ti424     Ti     0.8333   0.1667   0.1667
Ti425     Ti     0.8333   0.1667   0.5
Ti426     Ti     0.8333   0.1667   0.8333
Ti427     Ti     0.8333   0.5   0.1667
Ti428     Ti     0.8333   0.5   0.5
Ti429     Ti     0.8333   0.5   0.8333
Ti430     Ti     0.8333   0.8333   0.1667
Ti431     Ti     0.8333   0.8333   0.5
Ti432     Ti     0.8333   0.8333   0.8333
loop_
_geom_bond_atom_site_label_1
_geom_bond_atom_site_label_2
_geom_bond_distance
_geom_bond_site_symmetry_2
_ccdc_geom_bond_type
Er1     V352    6.017   .     S
Er1     Ti411    10.031   1_554     S
Er1     Ti409    10.031   .     S
Er2     V353    6.017   .     S
Er2     Ti409    10.031   .     S
Er2     Ti410    10.031   .     S
Er3     V354    6.017   .     S
Er3     Ti410    10.031   .     S
Er3     Ti411    10.031   .     S
Er4     V355    6.017   .     S
Er4     Ti414    10.031   1_554     S
Er4     Ti412    10.031   .     S
Er5     V356    6.017   .     S
Er5     Ti412    10.031   .     S
Er5     Ti413    10.031   .     S
Er6     V357    6.017   .     S
Er6     Ti413    10.031   .     S
Er6     Ti414    10.031   .     S
Er7     V358    6.017   .     S
Er7     Ti408    10.031   1_564     S
Er7     Ti406    10.031   1_565     S
Er8     V359    6.017   .     S
Er8     Ti406    10.031   1_565     S
Er8     Ti407    10.031   1_565     S
Er9     V360    6.017   .     S
Er9     Ti407    10.031   1_565     S
Er9     Ti408    10.031   1_565     S
Er10     V361    6.017   .     S
Er10     Ti420    10.031   1_554     S
Er10     Ti418    10.031   .     S
Er11     V362    6.017   .     S
Er11     Ti418    10.031   .     S
Er11     Ti419    10.031   .     S
Er12     V363    6.017   .     S
Er12     Ti419    10.031   .     S
Er12     Ti420    10.031   .     S
Er13     V364    6.017   .     S
Er13     Ti423    10.031   1_554     S
Er13     Ti421    10.031   .     S
Er14     V365    6.017   .     S
Er14     Ti421    10.031   .     S
Er14     Ti422    10.031   .     S
Er15     V366    6.017   .     S
Er15     Ti422    10.031   .     S
Er15     Ti423    10.031   .     S
Er16     V367    6.017   .     S
Er16     Ti417    10.031   1_564     S
Er16     Ti415    10.031   1_565     S
Er17     V368    6.017   .     S
Er17     Ti415    10.031   1_565     S
Er17     Ti416    10.031   1_565     S
Er18     V369    6.017   .     S
Er18     Ti416    10.031   1_565     S
Er18     Ti417    10.031   1_565     S
Er19     V370    6.017   .     S
Er19     Ti429    10.031   1_554     S
Er19     Ti427    10.031   .     S
Er20     V371    6.017   .     S
Er20     Ti427    10.031   .     S
Er20     Ti428    10.031   .     S
Er21     V372    6.017   .     S
Er21     Ti428    10.031   .     S
Er21     Ti429    10.031   .     S
Er22     V373    6.017   .     S
Er22     Ti432    10.031   1_554     S
Er22     Ti430    10.031   .     S
Er23     V374    6.017   .     S
Er23     Ti430    10.031   .     S
Er23     Ti431    10.031   .     S
Er24     V375    6.017   .     S
Er24     Ti431    10.031   .     S
Er24     Ti432    10.031   .     S
Er25     V376    6.017   .     S
Er25     Ti426    10.031   1_564     S
Er25     Ti424    10.031   1_565     S
Er26     V377    6.017   .     S
Er26     Ti424    10.031   1_565     S
Er26     Ti425    10.031   1_565     S
Er27     V378    6.017   .     S
Er27     Ti425    10.031   1_565     S
Er27     Ti426    10.031   1_565     S
Er28     V379    6.017   .     S
Er28     Ti417    10.031   1_554     S
Er28     Ti415    10.031   .     S
Er29     V380    6.017   .     S
Er29     Ti415    10.031   .     S
Er29     Ti416    10.031   .     S
Er30     V381    6.017   .     S
Er30     Ti416    10.031   .     S
Er30     Ti417    10.031   .     S
Er31     V382    6.017   .     S
Er31     Ti420    10.031   1_554     S
Er31     Ti418    10.031   .     S
Er32     V383    6.017   .     S
Er32     Ti418    10.031   .     S
Er32     Ti419    10.031   .     S
Er33     V384    6.017   .     S
Er33     Ti419    10.031   .     S
Er33     Ti420    10.031   .     S
Er34     V385    6.017   .     S
Er34     Ti423    10.031   1_554     S
Er34     Ti421    10.031   .     S
Er35     V386    6.017   .     S
Er35     Ti421    10.031   .     S
Er35     Ti422    10.031   .     S
Er36     V387    6.017   .     S
Er36     Ti422    10.031   .     S
Er36     Ti423    10.031   .     S
Er37     V388    6.017   .     S
Er37     Ti426    10.031   1_554     S
Er37     Ti424    10.031   .     S
Er38     V389    6.017   .     S
Er38     Ti424    10.031   .     S
Er38     Ti425    10.031   .     S
Er39     V390    6.017   .     S
Er39     Ti425    10.031   .     S
Er39     Ti426    10.031   .     S
Er40     V391    6.017   .     S
Er40     Ti429    10.031   1_554     S
Er40     Ti427    10.031   .     S
Er41     V392    6.017   .     S
Er41     Ti427    10.031   .     S
Er41     Ti428    10.031   .     S
Er42     V393    6.017   .     S
Er42     Ti428    10.031   .     S
Er42     Ti429    10.031   .     S
Er43     V394    6.017   .     S
Er43     Ti432    10.031   1_554     S
Er43     Ti430    10.031   .     S
Er44     V395    6.017   .     S
Er44     Ti430    10.031   .     S
Er44     Ti431    10.031   .     S
Er45     V396    6.017   .     S
Er45     Ti431    10.031   .     S
Er45     Ti432    10.031   .     S
Er46     V397    6.017   .     S
Er46     Ti408    10.031   1_654     S
Er46     Ti406    10.031   1_655     S
Er47     V398    6.017   .     S
Er47     Ti406    10.031   1_655     S
Er47     Ti407    10.031   1_655     S
Er48     V399    6.017   .     S
Er48     Ti407    10.031   1_655     S
Er48     Ti408    10.031   1_655     S
Er49     V400    6.017   .     S
Er49     Ti411    10.031   1_654     S
Er49     Ti409    10.031   1_655     S
Er50     V401    6.017   .     S
Er50     Ti409    10.031   1_655     S
Er50     Ti410    10.031   1_655     S
Er51     V402    6.017   .     S
Er51     Ti410    10.031   1_655     S
Er51     Ti411    10.031   1_655     S
Er52     V403    6.017   .     S
Er52     Ti414    10.031   1_654     S
Er52     Ti412    10.031   1_655     S
Er53     V404    6.017   .     S
Er53     Ti412    10.031   1_655     S
Er53     Ti413    10.031   1_655     S
Er54     V405    6.017   .     S
Er54     Ti413    10.031   1_655     S
Er54     Ti414    10.031   1_655     S
Er55     V355    6.017   .     S
Er55     Ti414    10.031   1_544     S
Er55     Ti412    10.031   1_545     S
Er56     V356    6.017   .     S
Er56     Ti412    10.031   1_545     S
Er56     Ti413    10.031   1_545     S
Er57     V357    6.017   .     S
Er57     Ti413    10.031   1_545     S
Er57     Ti414    10.031   1_545     S
Er58     V358    6.017   .     S
Er58     Ti408    10.031   1_554     S
Er58     Ti406    10.031   .     S
Er59     V359    6.017   .     S
Er59     Ti406    10.031   .     S
Er59     Ti407    10.031   .     S
Er60     V360    6.017   .     S
Er60     Ti407    10.031   .     S
Er60     Ti408    10.031   .     S
Er61     V352    6.017   1_565     S
Er61     Ti411    10.031   1_554     S
Er61     Ti409    10.031   .     S
Er62     V353    6.017   1_565     S
Er62     Ti409    10.031   .     S
Er62     Ti410    10.031   .     S
Er63     V354    6.017   1_565     S
Er63     Ti410    10.031   .     S
Er63     Ti411    10.031   .     S
Er64     V364    6.017   .     S
Er64     Ti423    10.031   1_544     S
Er64     Ti421    10.031   1_545     S
Er65     V365    6.017   .     S
Er65     Ti421    10.031   1_545     S
Er65     Ti422    10.031   1_545     S
Er66     V366    6.017   .     S
Er66     Ti422    10.031   1_545     S
Er66     Ti423    10.031   1_545     S
Er67     V367    6.017   .     S
Er67     Ti417    10.031   1_554     S
Er67     Ti415    10.031   .     S
Er68     V368    6.017   .     S
Er68     Ti415    10.031   .     S
Er68     Ti416    10.031   .     S
Er69     V369    6.017   .     S
Er69     Ti416    10.031   .     S
Er69     Ti417    10.031   .     S
Er70     V361    6.017   1_565     S
Er70     Ti420    10.031   1_554     S
Er70     Ti418    10.031   .     S
Er71     V362    6.017   1_565     S
Er71     Ti418    10.031   .     S
Er71     Ti419    10.031   .     S
Er72     V363    6.017   1_565     S
Er72     Ti419    10.031   .     S
Er72     Ti420    10.031   .     S
Er73     V373    6.017   .     S
Er73     Ti432    10.031   1_544     S
Er73     Ti430    10.031   1_545     S
Er74     V374    6.017   .     S
Er74     Ti430    10.031   1_545     S
Er74     Ti431    10.031   1_545     S
Er75     V375    6.017   .     S
Er75     Ti431    10.031   1_545     S
Er75     Ti432    10.031   1_545     S
Er76     V376    6.017   .     S
Er76     Ti426    10.031   1_554     S
Er76     Ti424    10.031   .     S
Er77     V377    6.017   .     S
Er77     Ti424    10.031   .     S
Er77     Ti425    10.031   .     S
Er78     V378    6.017   .     S
Er78     Ti425    10.031   .     S
Er78     Ti426    10.031   .     S
Er79     V370    6.017   1_565     S
Er79     Ti429    10.031   1_554     S
Er79     Ti427    10.031   .     S
Er80     V371    6.017   1_565     S
Er80     Ti427    10.031   .     S
Er80     Ti428    10.031   .     S
Er81     V372    6.017   1_565     S
Er81     Ti428    10.031   .     S
Er81     Ti429    10.031   .     S
Er82     V388    6.017   .     S
Er82     Ti426    10.031   1_454     S
Er82     Ti424    10.031   1_455     S
Er83     V389    6.017   .     S
Er83     Ti424    10.031   1_455     S
Er83     Ti425    10.031   1_455     S
Er84     V390    6.017   .     S
Er84     Ti425    10.031   1_455     S
Er84     Ti426    10.031   1_455     S
Er85     V391    6.017   .     S
Er85     Ti429    10.031   1_454     S
Er85     Ti427    10.031   1_455     S
Er86     V392    6.017   .     S
Er86     Ti427    10.031   1_455     S
Er86     Ti428    10.031   1_455     S
Er87     V393    6.017   .     S
Er87     Ti428    10.031   1_455     S
Er87     Ti429    10.031   1_455     S
Er88     V394    6.017   .     S
Er88     Ti432    10.031   1_454     S
Er88     Ti430    10.031   1_455     S
Er89     V395    6.017   .     S
Er89     Ti430    10.031   1_455     S
Er89     Ti431    10.031   1_455     S
Er90     V396    6.017   .     S
Er90     Ti431    10.031   1_455     S
Er90     Ti432    10.031   1_455     S
Er91     V397    6.017   .     S
Er91     Ti408    10.031   1_554     S
Er91     Ti406    10.031   .     S
Er92     V398    6.017   .     S
Er92     Ti406    10.031   .     S
Er92     Ti407    10.031   .     S
Er93     V399    6.017   .     S
Er93     Ti407    10.031   .     S
Er93     Ti408    10.031   .     S
Er94     V400    6.017   .     S
Er94     Ti411    10.031   1_554     S
Er94     Ti409    10.031   .     S
Er95     V401    6.017   .     S
Er95     Ti409    10.031   .     S
Er95     Ti410    10.031   .     S
Er96     V402    6.017   .     S
Er96     Ti410    10.031   .     S
Er96     Ti411    10.031   .     S
Er97     V403    6.017   .     S
Er97     Ti414    10.031   1_554     S
Er97     Ti412    10.031   .     S
Er98     V404    6.017   .     S
Er98     Ti412    10.031   .     S
Er98     Ti413    10.031   .     S
Er99     V405    6.017   .     S
Er99     Ti413    10.031   .     S
Er99     Ti414    10.031   .     S
Er100     V379    6.017   1_655     S
Er100     Ti417    10.031   1_554     S
Er100     Ti415    10.031   .     S
Er101     V380    6.017   1_655     S
Er101     Ti415    10.031   .     S
Er101     Ti416    10.031   .     S
Er102     V381    6.017   1_655     S
Er102     Ti416    10.031   .     S
Er102     Ti417    10.031   .     S
Er103     V382    6.017   1_655     S
Er103     Ti420    10.031   1_554     S
Er103     Ti418    10.031   .     S
Er104     V383    6.017   1_655     S
Er104     Ti418    10.031   .     S
Er104     Ti419    10.031   .     S
Er105     V384    6.017   1_655     S
Er105     Ti419    10.031   .     S
Er105     Ti420    10.031   .     S
Er106     V385    6.017   1_655     S
Er106     Ti423    10.031   1_554     S
Er106     Ti421    10.031   .     S
Er107     V386    6.017   1_655     S
Er107     Ti421    10.031   .     S
Er107     Ti422    10.031   .     S
Er108     V387    6.017   1_655     S
Er108     Ti422    10.031   .     S
Er108     Ti423    10.031   .     S
Er109     V379    6.017   .     S
Er109     Ti425    10.031   1_455     S
Er109     Ti407    10.031   .     S
Er110     V380    6.017   .     S
Er110     Ti426    10.031   1_455     S
Er110     Ti408    10.031   .     S
Er111     V381    6.017   .     S
Er111     Ti424    10.031   1_456     S
Er111     Ti406    10.031   1_556     S
Er112     V382    6.017   .     S
Er112     Ti428    10.031   1_455     S
Er112     Ti410    10.031   .     S
Er113     V383    6.017   .     S
Er113     Ti429    10.031   1_455     S
Er113     Ti411    10.031   .     S
Er114     V384    6.017   .     S
Er114     Ti427    10.031   1_456     S
Er114     Ti409    10.031   1_556     S
Er115     V385    6.017   .     S
Er115     Ti431    10.031   1_455     S
Er115     Ti413    10.031   .     S
Er116     V386    6.017   .     S
Er116     Ti432    10.031   1_455     S
Er116     Ti414    10.031   .     S
Er117     V387    6.017   .     S
Er117     Ti430    10.031   1_456     S
Er117     Ti412    10.031   1_556     S
Er118     V388    6.017   .     S
Er118     Ti407    10.031   .     S
Er118     Ti416    10.031   .     S
Er119     V389    6.017   .     S
Er119     Ti408    10.031   .     S
Er119     Ti417    10.031   .     S
Er120     V390    6.017   .     S
Er120     Ti406    10.031   1_556     S
Er120     Ti415    10.031   1_556     S
Er121     V391    6.017   .     S
Er121     Ti410    10.031   .     S
Er121     Ti419    10.031   .     S
Er122     V392    6.017   .     S
Er122     Ti411    10.031   .     S
Er122     Ti420    10.031   .     S
Er123     V393    6.017   .     S
Er123     Ti409    10.031   1_556     S
Er123     Ti418    10.031   1_556     S
Er124     V394    6.017   .     S
Er124     Ti413    10.031   .     S
Er124     Ti422    10.031   .     S
Er125     V395    6.017   .     S
Er125     Ti414    10.031   .     S
Er125     Ti423    10.031   .     S
Er126     V396    6.017   .     S
Er126     Ti412    10.031   1_556     S
Er126     Ti421    10.031   1_556     S
Er127     V397    6.017   .     S
Er127     Ti416    10.031   .     S
Er127     Ti425    10.031   .     S
Er128     V398    6.017   .     S
Er128     Ti417    10.031   .     S
Er128     Ti426    10.031   .     S
Er129     V399    6.017   .     S
Er129     Ti415    10.031   1_556     S
Er129     Ti424    10.031   1_556     S
Er130     V400    6.017   .     S
Er130     Ti419    10.031   .     S
Er130     Ti428    10.031   .     S
Er131     V401    6.017   .     S
Er131     Ti420    10.031   .     S
Er131     Ti429    10.031   .     S
Er132     V402    6.017   .     S
Er132     Ti418    10.031   1_556     S
Er132     Ti427    10.031   1_556     S
Er133     V403    6.017   .     S
Er133     Ti422    10.031   .     S
Er133     Ti431    10.031   .     S
Er134     V404    6.017   .     S
Er134     Ti423    10.031   .     S
Er134     Ti432    10.031   .     S
Er135     V405    6.017   .     S
Er135     Ti421    10.031   1_556     S
Er135     Ti430    10.031   1_556     S
Er136     V325    6.017   .     S
Er136     Ti427    10.031   1_455     S
Er136     Ti409    10.031   .     S
Er137     V326    6.017   .     S
Er137     Ti428    10.031   1_455     S
Er137     Ti410    10.031   .     S
Er138     V327    6.017   .     S
Er138     Ti429    10.031   1_455     S
Er138     Ti411    10.031   .     S
Er139     V328    6.017   .     S
Er139     Ti430    10.031   1_455     S
Er139     Ti412    10.031   .     S
Er140     V329    6.017   .     S
Er140     Ti431    10.031   1_455     S
Er140     Ti413    10.031   .     S
Er141     V330    6.017   .     S
Er141     Ti432    10.031   1_455     S
Er141     Ti414    10.031   .     S
Er142     V331    6.017   .     S
Er142     Ti424    10.031   1_465     S
Er142     Ti406    10.031   1_565     S
Er143     V332    6.017   .     S
Er143     Ti425    10.031   1_465     S
Er143     Ti407    10.031   1_565     S
Er144     V333    6.017   .     S
Er144     Ti426    10.031   1_465     S
Er144     Ti408    10.031   1_565     S
Er145     V334    6.017   .     S
Er145     Ti409    10.031   .     S
Er145     Ti418    10.031   .     S
Er146     V335    6.017   .     S
Er146     Ti410    10.031   .     S
Er146     Ti419    10.031   .     S
Er147     V336    6.017   .     S
Er147     Ti411    10.031   .     S
Er147     Ti420    10.031   .     S
Er148     V337    6.017   .     S
Er148     Ti412    10.031   .     S
Er148     Ti421    10.031   .     S
Er149     V338    6.017   .     S
Er149     Ti413    10.031   .     S
Er149     Ti422    10.031   .     S
Er150     V339    6.017   .     S
Er150     Ti414    10.031   .     S
Er150     Ti423    10.031   .     S
Er151     V340    6.017   .     S
Er151     Ti406    10.031   1_565     S
Er151     Ti415    10.031   1_565     S
Er152     V341    6.017   .     S
Er152     Ti407    10.031   1_565     S
Er152     Ti416    10.031   1_565     S
Er153     V342    6.017   .     S
Er153     Ti408    10.031   1_565     S
Er153     Ti417    10.031   1_565     S
Er154     V343    6.017   .     S
Er154     Ti418    10.031   .     S
Er154     Ti427    10.031   .     S
Er155     V344    6.017   .     S
Er155     Ti419    10.031   .     S
Er155     Ti428    10.031   .     S
Er156     V345    6.017   .     S
Er156     Ti420    10.031   .     S
Er156     Ti429    10.031   .     S
Er157     V346    6.017   .     S
Er157     Ti421    10.031   .     S
Er157     Ti430    10.031   .     S
Er158     V347    6.017   .     S
Er158     Ti422    10.031   .     S
Er158     Ti431    10.031   .     S
Er159     V348    6.017   .     S
Er159     Ti423    10.031   .     S
Er159     Ti432    10.031   .     S
Er160     V349    6.017   .     S
Er160     Ti415    10.031   1_565     S
Er160     Ti424    10.031   1_565     S
Er161     V350    6.017   .     S
Er161     Ti416    10.031   1_565     S
Er161     Ti425    10.031   1_565     S
Er162     V351    6.017   .     S
Er162     Ti417    10.031   1_565     S
Er162     Ti426    10.031   1_565     S
Er163     V328    6.017   .     S
Er163     Ti430    10.031   1_445     S
Er163     Ti412    10.031   1_545     S
Er164     V329    6.017   .     S
Er164     Ti431    10.031   1_445     S
Er164     Ti413    10.031   1_545     S
Er165     V330    6.017   .     S
Er165     Ti432    10.031   1_445     S
Er165     Ti414    10.031   1_545     S
Er166     V331    6.017   .     S
Er166     Ti424    10.031   1_455     S
Er166     Ti406    10.031   .     S
Er167     V332    6.017   .     S
Er167     Ti425    10.031   1_455     S
Er167     Ti407    10.031   .     S
Er168     V333    6.017   .     S
Er168     Ti426    10.031   1_455     S
Er168     Ti408    10.031   .     S
Er169     V325    6.017   1_565     S
Er169     Ti427    10.031   1_455     S
Er169     Ti409    10.031   .     S
Er170     V326    6.017   1_565     S
Er170     Ti428    10.031   1_455     S
Er170     Ti410    10.031   .     S
Er171     V327    6.017   1_565     S
Er171     Ti429    10.031   1_455     S
Er171     Ti411    10.031   .     S
Er172     V337    6.017   .     S
Er172     Ti412    10.031   1_545     S
Er172     Ti421    10.031   1_545     S
Er173     V338    6.017   .     S
Er173     Ti413    10.031   1_545     S
Er173     Ti422    10.031   1_545     S
Er174     V339    6.017   .     S
Er174     Ti414    10.031   1_545     S
Er174     Ti423    10.031   1_545     S
Er175     V340    6.017   .     S
Er175     Ti406    10.031   .     S
Er175     Ti415    10.031   .     S
Er176     V341    6.017   .     S
Er176     Ti407    10.031   .     S
Er176     Ti416    10.031   .     S
Er177     V342    6.017   .     S
Er177     Ti408    10.031   .     S
Er177     Ti417    10.031   .     S
Er178     V334    6.017   1_565     S
Er178     Ti409    10.031   .     S
Er178     Ti418    10.031   .     S
Er179     V335    6.017   1_565     S
Er179     Ti410    10.031   .     S
Er179     Ti419    10.031   .     S
Er180     V336    6.017   1_565     S
Er180     Ti411    10.031   .     S
Er180     Ti420    10.031   .     S
Er181     V346    6.017   .     S
Er181     Ti421    10.031   1_545     S
Er181     Ti430    10.031   1_545     S
Er182     V347    6.017   .     S
Er182     Ti422    10.031   1_545     S
Er182     Ti431    10.031   1_545     S
Er183     V348    6.017   .     S
Er183     Ti423    10.031   1_545     S
Er183     Ti432    10.031   1_545     S
Er184     V349    6.017   .     S
Er184     Ti415    10.031   .     S
Er184     Ti424    10.031   .     S
Er185     V350    6.017   .     S
Er185     Ti416    10.031   .     S
Er185     Ti425    10.031   .     S
Er186     V351    6.017   .     S
Er186     Ti417    10.031   .     S
Er186     Ti426    10.031   .     S
Er187     V343    6.017   1_565     S
Er187     Ti418    10.031   .     S
Er187     Ti427    10.031   .     S
Er188     V344    6.017   1_565     S
Er188     Ti419    10.031   .     S
Er188     Ti428    10.031   .     S
Er189     V345    6.017   1_565     S
Er189     Ti420    10.031   .     S
Er189     Ti429    10.031   .     S
Er190     V380    6.017   .     S
Er190     Ti426    10.031   1_454     S
Er190     Ti408    10.031   1_554     S
Er191     V381    6.017   .     S
Er191     Ti424    10.031   1_455     S
Er191     Ti406    10.031   .     S
Er192     V379    6.017   1_556     S
Er192     Ti425    10.031   1_455     S
Er192     Ti407    10.031   .     S
Er193     V383    6.017   .     S
Er193     Ti429    10.031   1_454     S
Er193     Ti411    10.031   1_554     S
Er194     V384    6.017   .     S
Er194     Ti427    10.031   1_455     S
Er194     Ti409    10.031   .     S
Er195     V382    6.017   1_556     S
Er195     Ti428    10.031   1_455     S
Er195     Ti410    10.031   .     S
Er196     V386    6.017   .     S
Er196     Ti432    10.031   1_454     S
Er196     Ti414    10.031   1_554     S
Er197     V387    6.017   .     S
Er197     Ti430    10.031   1_455     S
Er197     Ti412    10.031   .     S
Er198     V385    6.017   1_556     S
Er198     Ti431    10.031   1_455     S
Er198     Ti413    10.031   .     S
Er199     V389    6.017   .     S
Er199     Ti408    10.031   1_554     S
Er199     Ti417    10.031   1_554     S
Er200     V390    6.017   .     S
Er200     Ti406    10.031   .     S
Er200     Ti415    10.031   .     S
Er201     V388    6.017   1_556     S
Er201     Ti407    10.031   .     S
Er201     Ti416    10.031   .     S
Er202     V392    6.017   .     S
Er202     Ti411    10.031   1_554     S
Er202     Ti420    10.031   1_554     S
Er203     V393    6.017   .     S
Er203     Ti409    10.031   .     S
Er203     Ti418    10.031   .     S
Er204     V391    6.017   1_556     S
Er204     Ti410    10.031   .     S
Er204     Ti419    10.031   .     S
Er205     V395    6.017   .     S
Er205     Ti414    10.031   1_554     S
Er205     Ti423    10.031   1_554     S
Er206     V396    6.017   .     S
Er206     Ti412    10.031   .     S
Er206     Ti421    10.031   .     S
Er207     V394    6.017   1_556     S
Er207     Ti413    10.031   .     S
Er207     Ti422    10.031   .     S
Er208     V398    6.017   .     S
Er208     Ti417    10.031   1_554     S
Er208     Ti426    10.031   1_554     S
Er209     V399    6.017   .     S
Er209     Ti415    10.031   .     S
Er209     Ti424    10.031   .     S
Er210     V397    6.017   1_556     S
Er210     Ti416    10.031   .     S
Er210     Ti425    10.031   .     S
Er211     V401    6.017   .     S
Er211     Ti420    10.031   1_554     S
Er211     Ti429    10.031   1_554     S
Er212     V402    6.017   .     S
Er212     Ti418    10.031   .     S
Er212     Ti427    10.031   .     S
Er213     V400    6.017   1_556     S
Er213     Ti419    10.031   .     S
Er213     Ti428    10.031   .     S
Er214     V404    6.017   .     S
Er214     Ti423    10.031   1_554     S
Er214     Ti432    10.031   1_554     S
Er215     V405    6.017   .     S
Er215     Ti421    10.031   .     S
Er215     Ti430    10.031   .     S
Er216     V403    6.017   1_556     S
Er216     Ti422    10.031   .     S
Er216     Ti431    10.031   .     S
Er217     V352    6.017   .     S
Er217     Ti413    10.031   1_545     S
Er217     Ti407    10.031   .     S
Er218     V353    6.017   .     S
Er218     Ti414    10.031   1_545     S
Er218     Ti408    10.031   .     S
Er219     V354    6.017   .     S
Er219     Ti412    10.031   1_546     S
Er219     Ti406    10.031   1_556     S
Er220     V355    6.017   .     S
Er220     Ti407    10.031   .     S
Er220     Ti410    10.031   .     S
Er221     V356    6.017   .     S
Er221     Ti408    10.031   .     S
Er221     Ti411    10.031   .     S
Er222     V357    6.017   .     S
Er222     Ti406    10.031   1_556     S
Er222     Ti409    10.031   1_556     S
Er223     V358    6.017   .     S
Er223     Ti410    10.031   .     S
Er223     Ti413    10.031   .     S
Er224     V359    6.017   .     S
Er224     Ti411    10.031   .     S
Er224     Ti414    10.031   .     S
Er225     V360    6.017   .     S
Er225     Ti409    10.031   1_556     S
Er225     Ti412    10.031   1_556     S
Er226     V361    6.017   .     S
Er226     Ti422    10.031   1_545     S
Er226     Ti416    10.031   .     S
Er227     V362    6.017   .     S
Er227     Ti423    10.031   1_545     S
Er227     Ti417    10.031   .     S
Er228     V363    6.017   .     S
Er228     Ti421    10.031   1_546     S
Er228     Ti415    10.031   1_556     S
Er229     V364    6.017   .     S
Er229     Ti416    10.031   .     S
Er229     Ti419    10.031   .     S
Er230     V365    6.017   .     S
Er230     Ti417    10.031   .     S
Er230     Ti420    10.031   .     S
Er231     V366    6.017   .     S
Er231     Ti415    10.031   1_556     S
Er231     Ti418    10.031   1_556     S
Er232     V367    6.017   .     S
Er232     Ti419    10.031   .     S
Er232     Ti422    10.031   .     S
Er233     V368    6.017   .     S
Er233     Ti420    10.031   .     S
Er233     Ti423    10.031   .     S
Er234     V369    6.017   .     S
Er234     Ti418    10.031   1_556     S
Er234     Ti421    10.031   1_556     S
Er235     V370    6.017   .     S
Er235     Ti431    10.031   1_545     S
Er235     Ti425    10.031   .     S
Er236     V371    6.017   .     S
Er236     Ti432    10.031   1_545     S
Er236     Ti426    10.031   .     S
Er237     V372    6.017   .     S
Er237     Ti430    10.031   1_546     S
Er237     Ti424    10.031   1_556     S
Er238     V373    6.017   .     S
Er238     Ti425    10.031   .     S
Er238     Ti428    10.031   .     S
Er239     V374    6.017   .     S
Er239     Ti426    10.031   .     S
Er239     Ti429    10.031   .     S
Er240     V375    6.017   .     S
Er240     Ti424    10.031   1_556     S
Er240     Ti427    10.031   1_556     S
Er241     V376    6.017   .     S
Er241     Ti428    10.031   .     S
Er241     Ti431    10.031   .     S
Er242     V377    6.017   .     S
Er242     Ti429    10.031   .     S
Er242     Ti432    10.031   .     S
Er243     V378    6.017   .     S
Er243     Ti427    10.031   1_556     S
Er243     Ti430    10.031   1_556     S
Er244     V325    6.017   .     S
Er244     Ti421    10.031   1_545     S
Er244     Ti415    10.031   .     S
Er245     V326    6.017   .     S
Er245     Ti422    10.031   1_545     S
Er245     Ti416    10.031   .     S
Er246     V327    6.017   .     S
Er246     Ti423    10.031   1_545     S
Er246     Ti417    10.031   .     S
Er247     V328    6.017   .     S
Er247     Ti415    10.031   .     S
Er247     Ti418    10.031   .     S
Er248     V329    6.017   .     S
Er248     Ti416    10.031   .     S
Er248     Ti419    10.031   .     S
Er249     V330    6.017   .     S
Er249     Ti417    10.031   .     S
Er249     Ti420    10.031   .     S
Er250     V331    6.017   .     S
Er250     Ti418    10.031   .     S
Er250     Ti421    10.031   .     S
Er251     V332    6.017   .     S
Er251     Ti419    10.031   .     S
Er251     Ti422    10.031   .     S
Er252     V333    6.017   .     S
Er252     Ti420    10.031   .     S
Er252     Ti423    10.031   .     S
Er253     V334    6.017   .     S
Er253     Ti430    10.031   1_545     S
Er253     Ti424    10.031   .     S
Er254     V335    6.017   .     S
Er254     Ti431    10.031   1_545     S
Er254     Ti425    10.031   .     S
Er255     V336    6.017   .     S
Er255     Ti432    10.031   1_545     S
Er255     Ti426    10.031   .     S
Er256     V337    6.017   .     S
Er256     Ti424    10.031   .     S
Er256     Ti427    10.031   .     S
Er257     V338    6.017   .     S
Er257     Ti425    10.031   .     S
Er257     Ti428    10.031   .     S
Er258     V339    6.017   .     S
Er258     Ti426    10.031   .     S
Er258     Ti429    10.031   .     S
Er259     V340    6.017   .     S
Er259     Ti427    10.031   .     S
Er259     Ti430    10.031   .     S
Er260     V341    6.017   .     S
Er260     Ti428    10.031   .     S
Er260     Ti431    10.031   .     S
Er261     V342    6.017   .     S
Er261     Ti429    10.031   .     S
Er261     Ti432    10.031   .     S
Er262     V343    6.017   .     S
Er262     Ti412    10.031   1_645     S
Er262     Ti406    10.031   1_655     S
Er263     V344    6.017   .     S
Er263     Ti413    10.031   1_645     S
Er263     Ti407    10.031   1_655     S
Er264     V345    6.017   .     S
Er264     Ti414    10.031   1_645     S
Er264     Ti408    10.031   1_655     S
Er265     V346    6.017   .     S
Er265     Ti406    10.031   1_655     S
Er265     Ti409    10.031   1_655     S
Er266     V347    6.017   .     S
Er266     Ti407    10.031   1_655     S
Er266     Ti410    10.031   1_655     S
Er267     V348    6.017   .     S
Er267     Ti408    10.031   1_655     S
Er267     Ti411    10.031   1_655     S
Er268     V349    6.017   .     S
Er268     Ti409    10.031   1_655     S
Er268     Ti412    10.031   1_655     S
Er269     V350    6.017   .     S
Er269     Ti410    10.031   1_655     S
Er269     Ti413    10.031   1_655     S
Er270     V351    6.017   .     S
Er270     Ti411    10.031   1_655     S
Er270     Ti414    10.031   1_655     S
Er271     V334    6.017   .     S
Er271     Ti430    10.031   1_445     S
Er271     Ti424    10.031   1_455     S
Er272     V335    6.017   .     S
Er272     Ti431    10.031   1_445     S
Er272     Ti425    10.031   1_455     S
Er273     V336    6.017   .     S
Er273     Ti432    10.031   1_445     S
Er273     Ti426    10.031   1_455     S
Er274     V337    6.017   .     S
Er274     Ti424    10.031   1_455     S
Er274     Ti427    10.031   1_455     S
Er275     V338    6.017   .     S
Er275     Ti425    10.031   1_455     S
Er275     Ti428    10.031   1_455     S
Er276     V339    6.017   .     S
Er276     Ti426    10.031   1_455     S
Er276     Ti429    10.031   1_455     S
Er277     V340    6.017   .     S
Er277     Ti427    10.031   1_455     S
Er277     Ti430    10.031   1_455     S
Er278     V341    6.017   .     S
Er278     Ti428    10.031   1_455     S
Er278     Ti431    10.031   1_455     S
Er279     V342    6.017   .     S
Er279     Ti429    10.031   1_455     S
Er279     Ti432    10.031   1_455     S
Er280     V343    6.017   .     S
Er280     Ti412    10.031   1_545     S
Er280     Ti406    10.031   .     S
Er281     V344    6.017   .     S
Er281     Ti413    10.031   1_545     S
Er281     Ti407    10.031   .     S
Er282     V345    6.017   .     S
Er282     Ti414    10.031   1_545     S
Er282     Ti408    10.031   .     S
Er283     V346    6.017   .     S
Er283     Ti406    10.031   .     S
Er283     Ti409    10.031   .     S
Er284     V347    6.017   .     S
Er284     Ti407    10.031   .     S
Er284     Ti410    10.031   .     S
Er285     V348    6.017   .     S
Er285     Ti408    10.031   .     S
Er285     Ti411    10.031   .     S
Er286     V349    6.017   .     S
Er286     Ti409    10.031   .     S
Er286     Ti412    10.031   .     S
Er287     V350    6.017   .     S
Er287     Ti410    10.031   .     S
Er287     Ti413    10.031   .     S
Er288     V351    6.017   .     S
Er288     Ti411    10.031   .     S
Er288     Ti414    10.031   .     S
Er289     V325    6.017   1_655     S
Er289     Ti421    10.031   1_545     S
Er289     Ti415    10.031   .     S
Er290     V326    6.017   1_655     S
Er290     Ti422    10.031   1_545     S
Er290     Ti416    10.031   .     S
Er291     V327    6.017   1_655     S
Er291     Ti423    10.031   1_545     S
Er291     Ti417    10.031   .     S
Er292     V328    6.017   1_655     S
Er292     Ti415    10.031   .     S
Er292     Ti418    10.031   .     S
Er293     V329    6.017   1_655     S
Er293     Ti416    10.031   .     S
Er293     Ti419    10.031   .     S
Er294     V330    6.017   1_655     S
Er294     Ti417    10.031   .     S
Er294     Ti420    10.031   .     S
Er295     V331    6.017   1_655     S
Er295     Ti418    10.031   .     S
Er295     Ti421    10.031   .     S
Er296     V332    6.017   1_655     S
Er296     Ti419    10.031   .     S
Er296     Ti422    10.031   .     S
Er297     V333    6.017   1_655     S
Er297     Ti420    10.031   .     S
Er297     Ti423    10.031   .     S
Er298     V353    6.017   .     S
Er298     Ti414    10.031   1_544     S
Er298     Ti408    10.031   1_554     S
Er299     V354    6.017   .     S
Er299     Ti412    10.031   1_545     S
Er299     Ti406    10.031   .     S
Er300     V352    6.017   1_556     S
Er300     Ti413    10.031   1_545     S
Er300     Ti407    10.031   .     S
Er301     V356    6.017   .     S
Er301     Ti408    10.031   1_554     S
Er301     Ti411    10.031   1_554     S
Er302     V357    6.017   .     S
Er302     Ti406    10.031   .     S
Er302     Ti409    10.031   .     S
Er303     V355    6.017   1_556     S
Er303     Ti407    10.031   .     S
Er303     Ti410    10.031   .     S
Er304     V359    6.017   .     S
Er304     Ti411    10.031   1_554     S
Er304     Ti414    10.031   1_554     S
Er305     V360    6.017   .     S
Er305     Ti409    10.031   .     S
Er305     Ti412    10.031   .     S
Er306     V358    6.017   1_556     S
Er306     Ti410    10.031   .     S
Er306     Ti413    10.031   .     S
Er307     V362    6.017   .     S
Er307     Ti423    10.031   1_544     S
Er307     Ti417    10.031   1_554     S
Er308     V363    6.017   .     S
Er308     Ti421    10.031   1_545     S
Er308     Ti415    10.031   .     S
Er309     V361    6.017   1_556     S
Er309     Ti422    10.031   1_545     S
Er309     Ti416    10.031   .     S
Er310     V365    6.017   .     S
Er310     Ti417    10.031   1_554     S
Er310     Ti420    10.031   1_554     S
Er311     V366    6.017   .     S
Er311     Ti415    10.031   .     S
Er311     Ti418    10.031   .     S
Er312     V364    6.017   1_556     S
Er312     Ti416    10.031   .     S
Er312     Ti419    10.031   .     S
Er313     V368    6.017   .     S
Er313     Ti420    10.031   1_554     S
Er313     Ti423    10.031   1_554     S
Er314     V369    6.017   .     S
Er314     Ti418    10.031   .     S
Er314     Ti421    10.031   .     S
Er315     V367    6.017   1_556     S
Er315     Ti419    10.031   .     S
Er315     Ti422    10.031   .     S
Er316     V371    6.017   .     S
Er316     Ti432    10.031   1_544     S
Er316     Ti426    10.031   1_554     S
Er317     V372    6.017   .     S
Er317     Ti430    10.031   1_545     S
Er317     Ti424    10.031   .     S
Er318     V370    6.017   1_556     S
Er318     Ti431    10.031   1_545     S
Er318     Ti425    10.031   .     S
Er319     V374    6.017   .     S
Er319     Ti426    10.031   1_554     S
Er319     Ti429    10.031   1_554     S
Er320     V375    6.017   .     S
Er320     Ti424    10.031   .     S
Er320     Ti427    10.031   .     S
Er321     V373    6.017   1_556     S
Er321     Ti425    10.031   .     S
Er321     Ti428    10.031   .     S
Er322     V377    6.017   .     S
Er322     Ti429    10.031   1_554     S
Er322     Ti432    10.031   1_554     S
Er323     V378    6.017   .     S
Er323     Ti427    10.031   .     S
Er323     Ti430    10.031   .     S
Er324     V376    6.017   1_556     S
Er324     Ti428    10.031   .     S
Er324     Ti431    10.031   .     S
V325     Er169    6.017   1_545     S
V325     Er289    6.017   1_455     S
V326     Er170    6.017   1_545     S
V326     Er290    6.017   1_455     S
V327     Er171    6.017   1_545     S
V327     Er291    6.017   1_455     S
V328     Er292    6.017   1_455     S
V329     Er293    6.017   1_455     S
V330     Er294    6.017   1_455     S
V331     Er295    6.017   1_455     S
V332     Er296    6.017   1_455     S
V333     Er297    6.017   1_455     S
V334     Er178    6.017   1_545     S
V335     Er179    6.017   1_545     S
V336     Er180    6.017   1_545     S
V343     Er187    6.017   1_545     S
V344     Er188    6.017   1_545     S
V345     Er189    6.017   1_545     S
V352     Er61    6.017   1_545     S
V352     Er300    6.017   1_554     S
V353     Er62    6.017   1_545     S
V354     Er63    6.017   1_545     S
V355     Er303    6.017   1_554     S
V358     Er306    6.017   1_554     S
V361     Er70    6.017   1_545     S
V361     Er309    6.017   1_554     S
V362     Er71    6.017   1_545     S
V363     Er72    6.017   1_545     S
V364     Er312    6.017   1_554     S
V367     Er315    6.017   1_554     S
V370     Er79    6.017   1_545     S
V370     Er318    6.017   1_554     S
V371     Er80    6.017   1_545     S
V372     Er81    6.017   1_545     S
V373     Er321    6.017   1_554     S
V376     Er324    6.017   1_554     S
V379     Er100    6.017   1_455     S
V379     Er192    6.017   1_554     S
V380     Er101    6.017   1_455     S
V381     Er102    6.017   1_455     S
V382     Er103    6.017   1_455     S
V382     Er195    6.017   1_554     S
V383     Er104    6.017   1_455     S
V384     Er105    6.017   1_455     S
V385     Er106    6.017   1_455     S
V385     Er198    6.017   1_554     S
V386     Er107    6.017   1_455     S
V387     Er108    6.017   1_455     S
V388     Er201    6.017   1_554     S
V391     Er204    6.017   1_554     S
V394     Er207    6.017   1_554     S
V397     Er210    6.017   1_554     S
V400     Er213    6.017   1_554     S
V403     Er216    6.017   1_554     S
Ti406     Er222    10.031   1_554     S
Ti406     Er120    10.031   1_554     S
Ti406     Er219    10.031   1_554     S
Ti406     Er111    10.031   1_554     S
Ti406     Er47    10.031   1_455     S
Ti406     Er265    10.031   1_455     S
Ti406     Er262    10.031   1_455     S
Ti406     Er46    10.031   1_455     S
Ti406     Er8    10.031   1_545     S
Ti406     Er151    10.031   1_545     S
Ti406     Er142    10.031   1_545     S
Ti406     Er7    10.031   1_545     S
Ti407     Er48    10.031   1_455     S
Ti407     Er266    10.031   1_455     S
Ti407     Er263    10.031   1_455     S
Ti407     Er47    10.031   1_455     S
Ti407     Er9    10.031   1_545     S
Ti407     Er152    10.031   1_545     S
Ti407     Er143    10.031   1_545     S
Ti407     Er8    10.031   1_545     S
Ti408     Er301    10.031   1_556     S
Ti408     Er199    10.031   1_556     S
Ti408     Er298    10.031   1_556     S
Ti408     Er190    10.031   1_556     S
Ti408     Er46    10.031   1_456     S
Ti408     Er91    10.031   1_556     S
Ti408     Er267    10.031   1_455     S
Ti408     Er264    10.031   1_455     S
Ti408     Er48    10.031   1_455     S
Ti408     Er7    10.031   1_546     S
Ti408     Er58    10.031   1_556     S
Ti408     Er153    10.031   1_545     S
Ti408     Er144    10.031   1_545     S
Ti408     Er9    10.031   1_545     S
Ti409     Er225    10.031   1_554     S
Ti409     Er123    10.031   1_554     S
Ti409     Er222    10.031   1_554     S
Ti409     Er114    10.031   1_554     S
Ti409     Er50    10.031   1_455     S
Ti409     Er268    10.031   1_455     S
Ti409     Er265    10.031   1_455     S
Ti409     Er49    10.031   1_455     S
Ti410     Er51    10.031   1_455     S
Ti410     Er269    10.031   1_455     S
Ti410     Er266    10.031   1_455     S
Ti410     Er50    10.031   1_455     S
Ti411     Er304    10.031   1_556     S
Ti411     Er202    10.031   1_556     S
Ti411     Er301    10.031   1_556     S
Ti411     Er193    10.031   1_556     S
Ti411     Er49    10.031   1_456     S
Ti411     Er94    10.031   1_556     S
Ti411     Er270    10.031   1_455     S
Ti411     Er267    10.031   1_455     S
Ti411     Er51    10.031   1_455     S
Ti411     Er1    10.031   1_556     S
Ti411     Er61    10.031   1_556     S
Ti412     Er219    10.031   1_564     S
Ti412     Er299    10.031   1_565     S
Ti412     Er126    10.031   1_554     S
Ti412     Er225    10.031   1_554     S
Ti412     Er117    10.031   1_554     S
Ti412     Er53    10.031   1_455     S
Ti412     Er262    10.031   1_465     S
Ti412     Er280    10.031   1_565     S
Ti412     Er268    10.031   1_455     S
Ti412     Er52    10.031   1_455     S
Ti412     Er56    10.031   1_565     S
Ti412     Er172    10.031   1_565     S
Ti412     Er163    10.031   1_565     S
Ti412     Er55    10.031   1_565     S
Ti413     Er217    10.031   1_565     S
Ti413     Er300    10.031   1_565     S
Ti413     Er54    10.031   1_455     S
Ti413     Er263    10.031   1_465     S
Ti413     Er281    10.031   1_565     S
Ti413     Er269    10.031   1_455     S
Ti413     Er53    10.031   1_455     S
Ti413     Er57    10.031   1_565     S
Ti413     Er173    10.031   1_565     S
Ti413     Er164    10.031   1_565     S
Ti413     Er56    10.031   1_565     S
Ti414     Er218    10.031   1_565     S
Ti414     Er298    10.031   1_566     S
Ti414     Er205    10.031   1_556     S
Ti414     Er304    10.031   1_556     S
Ti414     Er196    10.031   1_556     S
Ti414     Er52    10.031   1_456     S
Ti414     Er97    10.031   1_556     S
Ti414     Er264    10.031   1_465     S
Ti414     Er282    10.031   1_565     S
Ti414     Er270    10.031   1_455     S
Ti414     Er54    10.031   1_455     S
Ti414     Er4    10.031   1_556     S
Ti414     Er55    10.031   1_566     S
Ti414     Er174    10.031   1_565     S
Ti414     Er165    10.031   1_565     S
Ti414     Er57    10.031   1_565     S
Ti415     Er231    10.031   1_554     S
Ti415     Er129    10.031   1_554     S
Ti415     Er228    10.031   1_554     S
Ti415     Er120    10.031   1_554     S
Ti415     Er17    10.031   1_545     S
Ti415     Er160    10.031   1_545     S
Ti415     Er151    10.031   1_545     S
Ti415     Er16    10.031   1_545     S
Ti416     Er18    10.031   1_545     S
Ti416     Er161    10.031   1_545     S
Ti416     Er152    10.031   1_545     S
Ti416     Er17    10.031   1_545     S
Ti417     Er310    10.031   1_556     S
Ti417     Er208    10.031   1_556     S
Ti417     Er307    10.031   1_556     S
Ti417     Er199    10.031   1_556     S
Ti417     Er28    10.031   1_556     S
Ti417     Er100    10.031   1_556     S
Ti417     Er16    10.031   1_546     S
Ti417     Er67    10.031   1_556     S
Ti417     Er162    10.031   1_545     S
Ti417     Er153    10.031   1_545     S
Ti417     Er18    10.031   1_545     S
Ti418     Er234    10.031   1_554     S
Ti418     Er132    10.031   1_554     S
Ti418     Er231    10.031   1_554     S
Ti418     Er123    10.031   1_554     S
Ti420     Er313    10.031   1_556     S
Ti420     Er211    10.031   1_556     S
Ti420     Er310    10.031   1_556     S
Ti420     Er202    10.031   1_556     S
Ti420     Er31    10.031   1_556     S
Ti420     Er103    10.031   1_556     S
Ti420     Er10    10.031   1_556     S
Ti420     Er70    10.031   1_556     S
Ti421     Er228    10.031   1_564     S
Ti421     Er308    10.031   1_565     S
Ti421     Er135    10.031   1_554     S
Ti421     Er234    10.031   1_554     S
Ti421     Er126    10.031   1_554     S
Ti421     Er244    10.031   1_565     S
Ti421     Er289    10.031   1_565     S
Ti421     Er65    10.031   1_565     S
Ti421     Er181    10.031   1_565     S
Ti421     Er172    10.031   1_565     S
Ti421     Er64    10.031   1_565     S
Ti422     Er226    10.031   1_565     S
Ti422     Er309    10.031   1_565     S
Ti422     Er245    10.031   1_565     S
Ti422     Er290    10.031   1_565     S
Ti422     Er66    10.031   1_565     S
Ti422     Er182    10.031   1_565     S
Ti422     Er173    10.031   1_565     S
Ti422     Er65    10.031   1_565     S
Ti423     Er227    10.031   1_565     S
Ti423     Er307    10.031   1_566     S
Ti423     Er214    10.031   1_556     S
Ti423     Er313    10.031   1_556     S
Ti423     Er205    10.031   1_556     S
Ti423     Er34    10.031   1_556     S
Ti423     Er106    10.031   1_556     S
Ti423     Er246    10.031   1_565     S
Ti423     Er291    10.031   1_565     S
Ti423     Er13    10.031   1_556     S
Ti423     Er64    10.031   1_566     S
Ti423     Er183    10.031   1_565     S
Ti423     Er174    10.031   1_565     S
Ti423     Er66    10.031   1_565     S
Ti424     Er240    10.031   1_554     S
Ti424     Er111    10.031   1_654     S
Ti424     Er191    10.031   1_655     S
Ti424     Er237    10.031   1_554     S
Ti424     Er129    10.031   1_554     S
Ti424     Er83    10.031   1_655     S
Ti424     Er274    10.031   1_655     S
Ti424     Er271    10.031   1_655     S
Ti424     Er82    10.031   1_655     S
Ti424     Er26    10.031   1_545     S
Ti424     Er142    10.031   1_645     S
Ti424     Er166    10.031   1_655     S
Ti424     Er160    10.031   1_545     S
Ti424     Er25    10.031   1_545     S
Ti425     Er109    10.031   1_655     S
Ti425     Er192    10.031   1_655     S
Ti425     Er84    10.031   1_655     S
Ti425     Er275    10.031   1_655     S
Ti425     Er272    10.031   1_655     S
Ti425     Er83    10.031   1_655     S
Ti425     Er27    10.031   1_545     S
Ti425     Er143    10.031   1_645     S
Ti425     Er167    10.031   1_655     S
Ti425     Er161    10.031   1_545     S
Ti425     Er26    10.031   1_545     S
Ti426     Er319    10.031   1_556     S
Ti426     Er110    10.031   1_655     S
Ti426     Er190    10.031   1_656     S
Ti426     Er316    10.031   1_556     S
Ti426     Er208    10.031   1_556     S
Ti426     Er37    10.031   1_556     S
Ti426     Er82    10.031   1_656     S
Ti426     Er276    10.031   1_655     S
Ti426     Er273    10.031   1_655     S
Ti426     Er84    10.031   1_655     S
Ti426     Er25    10.031   1_546     S
Ti426     Er76    10.031   1_556     S
Ti426     Er144    10.031   1_645     S
Ti426     Er168    10.031   1_655     S
Ti426     Er162    10.031   1_545     S
Ti426     Er27    10.031   1_545     S
Ti427     Er243    10.031   1_554     S
Ti427     Er114    10.031   1_654     S
Ti427     Er194    10.031   1_655     S
Ti427     Er240    10.031   1_554     S
Ti427     Er132    10.031   1_554     S
Ti427     Er86    10.031   1_655     S
Ti427     Er277    10.031   1_655     S
Ti427     Er274    10.031   1_655     S
Ti427     Er85    10.031   1_655     S
Ti427     Er136    10.031   1_655     S
Ti427     Er169    10.031   1_655     S
Ti428     Er112    10.031   1_655     S
Ti428     Er195    10.031   1_655     S
Ti428     Er87    10.031   1_655     S
Ti428     Er278    10.031   1_655     S
Ti428     Er275    10.031   1_655     S
Ti428     Er86    10.031   1_655     S
Ti428     Er137    10.031   1_655     S
Ti428     Er170    10.031   1_655     S
Ti429     Er322    10.031   1_556     S
Ti429     Er113    10.031   1_655     S
Ti429     Er193    10.031   1_656     S
Ti429     Er319    10.031   1_556     S
Ti429     Er211    10.031   1_556     S
Ti429     Er40    10.031   1_556     S
Ti429     Er85    10.031   1_656     S
Ti429     Er279    10.031   1_655     S
Ti429     Er276    10.031   1_655     S
Ti429     Er87    10.031   1_655     S
Ti429     Er19    10.031   1_556     S
Ti429     Er79    10.031   1_556     S
Ti429     Er138    10.031   1_655     S
Ti429     Er171    10.031   1_655     S
Ti430     Er237    10.031   1_564     S
Ti430     Er317    10.031   1_565     S
Ti430     Er117    10.031   1_654     S
Ti430     Er197    10.031   1_655     S
Ti430     Er243    10.031   1_554     S
Ti430     Er135    10.031   1_554     S
Ti430     Er89    10.031   1_655     S
Ti430     Er253    10.031   1_565     S
Ti430     Er271    10.031   1_665     S
Ti430     Er277    10.031   1_655     S
Ti430     Er88    10.031   1_655     S
Ti430     Er74    10.031   1_565     S
Ti430     Er139    10.031   1_655     S
Ti430     Er163    10.031   1_665     S
Ti430     Er181    10.031   1_565     S
Ti430     Er73    10.031   1_565     S
Ti431     Er235    10.031   1_565     S
Ti431     Er318    10.031   1_565     S
Ti431     Er115    10.031   1_655     S
Ti431     Er198    10.031   1_655     S
Ti431     Er90    10.031   1_655     S
Ti431     Er254    10.031   1_565     S
Ti431     Er272    10.031   1_665     S
Ti431     Er278    10.031   1_655     S
Ti431     Er89    10.031   1_655     S
Ti431     Er75    10.031   1_565     S
Ti431     Er140    10.031   1_655     S
Ti431     Er164    10.031   1_665     S
Ti431     Er182    10.031   1_565     S
Ti431     Er74    10.031   1_565     S
Ti432     Er236    10.031   1_565     S
Ti432     Er316    10.031   1_566     S
Ti432     Er116    10.031   1_655     S
Ti432     Er196    10.031   1_656     S
Ti432     Er322    10.031   1_556     S
Ti432     Er214    10.031   1_556     S
Ti432     Er43    10.031   1_556     S
Ti432     Er88    10.031   1_656     S
Ti432     Er255    10.031   1_565     S
Ti432     Er273    10.031   1_665     S
Ti432     Er279    10.031   1_655     S
Ti432     Er90    10.031   1_655     S
Ti432     Er22    10.031   1_556     S
Ti432     Er73    10.031   1_566     S
Ti432     Er141    10.031   1_655     S
Ti432     Er165    10.031   1_665     S
Ti432     Er183    10.031   1_565     S
Ti432     Er75    10.031   1_565     S
