data_epb
_audit_creation_date              2019-12-31
_audit_creation_method            'Pymatgen'
_symmetry_space_group_name_H-M    'P1'
_symmetry_Int_Tables_number       1
loop_
_symmetry_equiv_pos_as_xyz
  x,y,z
_cell_length_a                    40.0
_cell_length_b                    40.0
_cell_length_c                    28.2843
_cell_angle_alpha                 90.0
_cell_angle_beta                 90.0
_cell_angle_gamma                 90.0
loop_
_atom_site_label
_atom_site_type_symbol
_atom_site_fract_x
_atom_site_fract_y
_atom_site_fract_z
V1     V     0.125   0.125   0.75
V2     V     0.125   0.625   0.75
V3     V     0.625   0.125   0.75
V4     V     0.625   0.625   0.75
Ti5     Ti     0.375   0.125   0.75
Ti6     Ti     0.375   0.625   0.75
Ti7     Ti     0.875   0.125   0.75
Ti8     Ti     0.875   0.625   0.75
V9     V     0.375   0.375   0.75
V10     V     0.375   0.875   0.75
V11     V     0.875   0.375   0.75
V12     V     0.875   0.875   0.75
V13     V     0.125   0.125   0.25
V14     V     0.125   0.625   0.25
V15     V     0.625   0.125   0.25
V16     V     0.625   0.625   0.25
Ti17     Ti     0.125   0.375   0.25
Ti18     Ti     0.125   0.875   0.25
Ti19     Ti     0.625   0.375   0.25
Ti20     Ti     0.625   0.875   0.25
V21     V     0.375   0.375   0.25
V22     V     0.375   0.875   0.25
V23     V     0.875   0.375   0.25
V24     V     0.875   0.875   0.25
Er25     Er     0.0   0.0   0.5
Er26     Er     0.0   0.5   0.5
Er27     Er     0.5   0.0   0.5
Er28     Er     0.5   0.5   0.5
Er29     Er     0.25   0.25   0.5
Er30     Er     0.25   0.75   0.5
Er31     Er     0.75   0.25   0.5
Er32     Er     0.75   0.75   0.5
Er33     Er     0.0   0.25   0.0
Er34     Er     0.0   0.75   0.0
Er35     Er     0.5   0.25   0.0
Er36     Er     0.5   0.75   0.0
Er37     Er     0.25   0.0   0.0
Er38     Er     0.25   0.5   0.0
Er39     Er     0.75   0.0   0.0
Er40     Er     0.75   0.5   0.0
loop_
_geom_bond_atom_site_label_1
_geom_bond_atom_site_label_2
_geom_bond_distance
_geom_bond_site_symmetry_2
_ccdc_geom_bond_type
V1     Ti5    10.0   .     S
V1     Ti7    10.0   1_455     S
V1     Er33    10.0   1_556     S
V1     Er37    10.0   1_556     S
V1     Er25    10.0   .     S
V1     Er29    10.0   .     S
V2     Ti6    10.0   .     S
V2     Ti8    10.0   1_455     S
V2     Er34    10.0   1_556     S
V2     Er38    10.0   1_556     S
V2     Er26    10.0   .     S
V2     Er30    10.0   .     S
V3     Ti7    10.0   .     S
V3     Ti5    10.0   .     S
V3     Er35    10.0   1_556     S
V3     Er39    10.0   1_556     S
V3     Er27    10.0   .     S
V3     Er31    10.0   .     S
V4     Ti8    10.0   .     S
V4     Ti6    10.0   .     S
V4     Er36    10.0   1_556     S
V4     Er40    10.0   1_556     S
V4     Er28    10.0   .     S
V4     Er32    10.0   .     S
Ti5     V10    10.0   1_545     S
Ti5     V9    10.0   .     S
Ti6     V9    10.0   .     S
Ti6     V10    10.0   .     S
Ti7     V1    10.0   1_655     S
Ti7     V12    10.0   1_545     S
Ti7     V11    10.0   .     S
Ti8     V2    10.0   1_655     S
Ti8     V11    10.0   .     S
Ti8     V12    10.0   .     S
V9     Er28    10.0   .     S
V9     Er29    10.0   .     S
V9     Er35    10.0   1_556     S
V9     Er38    10.0   1_556     S
V10     Ti5    10.0   1_565     S
V10     Er27    10.0   1_565     S
V10     Er30    10.0   .     S
V10     Er36    10.0   1_556     S
V10     Er37    10.0   1_566     S
V11     Er26    10.0   1_655     S
V11     Er31    10.0   .     S
V11     Er33    10.0   1_656     S
V11     Er40    10.0   1_556     S
V12     Ti7    10.0   1_565     S
V12     Er25    10.0   1_665     S
V12     Er32    10.0   .     S
V12     Er34    10.0   1_656     S
V12     Er39    10.0   1_566     S
V13     Ti18    10.0   1_545     S
V13     Ti17    10.0   .     S
V13     Er25    10.0   .     S
V13     Er29    10.0   .     S
V13     Er33    10.0   .     S
V13     Er37    10.0   .     S
V14     Ti17    10.0   .     S
V14     Ti18    10.0   .     S
V14     Er26    10.0   .     S
V14     Er30    10.0   .     S
V14     Er34    10.0   .     S
V14     Er38    10.0   .     S
V15     Ti20    10.0   1_545     S
V15     Ti19    10.0   .     S
V15     Er27    10.0   .     S
V15     Er31    10.0   .     S
V15     Er35    10.0   .     S
V15     Er39    10.0   .     S
V16     Ti19    10.0   .     S
V16     Ti20    10.0   .     S
V16     Er28    10.0   .     S
V16     Er32    10.0   .     S
V16     Er36    10.0   .     S
V16     Er40    10.0   .     S
Ti17     V21    10.0   .     S
Ti17     V23    10.0   1_455     S
Ti18     V13    10.0   1_565     S
Ti18     V22    10.0   .     S
Ti18     V24    10.0   1_455     S
Ti19     V23    10.0   .     S
Ti19     V21    10.0   .     S
Ti20     V15    10.0   1_565     S
Ti20     V24    10.0   .     S
Ti20     V22    10.0   .     S
V21     Er38    10.0   .     S
V21     Er35    10.0   .     S
V21     Er28    10.0   .     S
V21     Er29    10.0   .     S
V22     Er37    10.0   1_565     S
V22     Er36    10.0   .     S
V22     Er27    10.0   1_565     S
V22     Er30    10.0   .     S
V23     Ti17    10.0   1_655     S
V23     Er40    10.0   .     S
V23     Er33    10.0   1_655     S
V23     Er26    10.0   1_655     S
V23     Er31    10.0   .     S
V24     Ti18    10.0   1_655     S
V24     Er39    10.0   1_565     S
V24     Er34    10.0   1_655     S
V24     Er25    10.0   1_665     S
V24     Er32    10.0   .     S
Er25     V12    10.0   1_445     S
Er25     V24    10.0   1_445     S
Er26     V11    10.0   1_455     S
Er26     V23    10.0   1_455     S
Er27     V10    10.0   1_545     S
Er27     V22    10.0   1_545     S
Er33     V1    10.0   1_554     S
Er33     V23    10.0   1_455     S
Er33     V11    10.0   1_454     S
Er34     V2    10.0   1_554     S
Er34     V24    10.0   1_455     S
Er34     V12    10.0   1_454     S
Er35     V3    10.0   1_554     S
Er35     V9    10.0   1_554     S
Er36     V4    10.0   1_554     S
Er36     V10    10.0   1_554     S
Er37     V1    10.0   1_554     S
Er37     V22    10.0   1_545     S
Er37     V10    10.0   1_544     S
Er38     V2    10.0   1_554     S
Er38     V9    10.0   1_554     S
Er39     V3    10.0   1_554     S
Er39     V24    10.0   1_545     S
Er39     V12    10.0   1_544     S
Er40     V4    10.0   1_554     S
Er40     V11    10.0   1_554     S
