data_hms-e
_audit_creation_date              2019-12-31
_audit_creation_method            'Pymatgen'
_symmetry_space_group_name_H-M    'P1'
_symmetry_Int_Tables_number       1
loop_
_symmetry_equiv_pos_as_xyz
  x,y,z
_cell_length_a                    40.0
_cell_length_b                    40.0
_cell_length_c                    32.6598
_cell_angle_alpha                 90.0
_cell_angle_beta                 90.0
_cell_angle_gamma                 120.0
loop_
_atom_site_label
_atom_site_type_symbol
_atom_site_fract_x
_atom_site_fract_y
_atom_site_fract_z
V1     V     0.0833   0.1667   0.0
V2     V     0.0833   0.1667   0.5
V3     V     0.0833   0.6667   0.0
V4     V     0.0833   0.6667   0.5
V5     V     0.5833   0.1667   0.0
V6     V     0.5833   0.1667   0.5
V7     V     0.5833   0.6667   0.0
V8     V     0.5833   0.6667   0.5
V9     V     0.3333   0.4167   0.0
V10     V     0.3333   0.4167   0.5
V11     V     0.3333   0.9167   0.0
V12     V     0.3333   0.9167   0.5
V13     V     0.8333   0.4167   0.0
V14     V     0.8333   0.4167   0.5
V15     V     0.8333   0.9167   0.0
V16     V     0.8333   0.9167   0.5
V17     V     0.0833   0.4167   0.0
V18     V     0.0833   0.4167   0.5
V19     V     0.0833   0.9167   0.0
V20     V     0.0833   0.9167   0.5
V21     V     0.5833   0.4167   0.0
V22     V     0.5833   0.4167   0.5
V23     V     0.5833   0.9167   0.0
V24     V     0.5833   0.9167   0.5
Er25     Er     0.0   0.0   0.25
Er26     Er     0.0   0.0   0.75
Er27     Er     0.0   0.5   0.25
Er28     Er     0.0   0.5   0.75
Er29     Er     0.5   0.0   0.25
Er30     Er     0.5   0.0   0.75
Er31     Er     0.5   0.5   0.25
Er32     Er     0.5   0.5   0.75
loop_
_geom_bond_atom_site_label_1
_geom_bond_atom_site_label_2
_geom_bond_distance
_geom_bond_site_symmetry_2
_ccdc_geom_bond_type
V1     V15    10.0   1_445     S
V1     V9    10.0   .     S
V1     V17    10.0   .     S
V1     V19    10.0   1_545     S
V1     Er26    10.0   1_554     S
V1     Er25    10.0   .     S
V2     V16    10.0   1_445     S
V2     V10    10.0   .     S
V2     V18    10.0   .     S
V2     V20    10.0   1_545     S
V2     Er25    10.0   .     S
V2     Er26    10.0   .     S
V3     V13    10.0   1_455     S
V3     V11    10.0   .     S
V3     V19    10.0   .     S
V3     V17    10.0   .     S
V3     Er28    10.0   1_554     S
V3     Er27    10.0   .     S
V4     V14    10.0   1_455     S
V4     V12    10.0   .     S
V4     V20    10.0   .     S
V4     V18    10.0   .     S
V4     Er27    10.0   .     S
V4     Er28    10.0   .     S
V5     V11    10.0   1_545     S
V5     V13    10.0   .     S
V5     V21    10.0   .     S
V5     V23    10.0   1_545     S
V5     Er30    10.0   1_554     S
V5     Er29    10.0   .     S
V6     V12    10.0   1_545     S
V6     V14    10.0   .     S
V6     V22    10.0   .     S
V6     V24    10.0   1_545     S
V6     Er29    10.0   .     S
V6     Er30    10.0   .     S
V7     V9    10.0   .     S
V7     V15    10.0   .     S
V7     V23    10.0   .     S
V7     V21    10.0   .     S
V7     Er32    10.0   1_554     S
V7     Er31    10.0   .     S
V8     V10    10.0   .     S
V8     V16    10.0   .     S
V8     V24    10.0   .     S
V8     V22    10.0   .     S
V8     Er31    10.0   .     S
V8     Er32    10.0   .     S
V9     V17    10.0   .     S
V9     V21    10.0   .     S
V9     Er32    10.0   1_554     S
V9     Er31    10.0   .     S
V10     V18    10.0   .     S
V10     V22    10.0   .     S
V10     Er31    10.0   .     S
V10     Er32    10.0   .     S
V11     V5    10.0   1_565     S
V11     V19    10.0   .     S
V11     V23    10.0   .     S
V11     Er30    10.0   1_564     S
V11     Er29    10.0   1_565     S
V12     V6    10.0   1_565     S
V12     V20    10.0   .     S
V12     V24    10.0   .     S
V12     Er29    10.0   1_565     S
V12     Er30    10.0   1_565     S
V13     V3    10.0   1_655     S
V13     V21    10.0   .     S
V13     V17    10.0   1_655     S
V13     Er28    10.0   1_654     S
V13     Er27    10.0   1_655     S
V14     V4    10.0   1_655     S
V14     V22    10.0   .     S
V14     V18    10.0   1_655     S
V14     Er27    10.0   1_655     S
V14     Er28    10.0   1_655     S
V15     V1    10.0   1_665     S
V15     V23    10.0   .     S
V15     V19    10.0   1_655     S
V15     Er26    10.0   1_664     S
V15     Er25    10.0   1_665     S
V16     V2    10.0   1_665     S
V16     V24    10.0   .     S
V16     V20    10.0   1_655     S
V16     Er25    10.0   1_665     S
V16     Er26    10.0   1_665     S
V17     V13    10.0   1_455     S
V17     Er28    10.0   1_554     S
V17     Er27    10.0   .     S
V18     V14    10.0   1_455     S
V18     Er27    10.0   .     S
V18     Er28    10.0   .     S
V19     V1    10.0   1_565     S
V19     V15    10.0   1_455     S
V19     Er26    10.0   1_564     S
V19     Er25    10.0   1_565     S
V20     V2    10.0   1_565     S
V20     V16    10.0   1_455     S
V20     Er25    10.0   1_565     S
V20     Er26    10.0   1_565     S
V21     Er32    10.0   1_554     S
V21     Er31    10.0   .     S
V22     Er31    10.0   .     S
V22     Er32    10.0   .     S
V23     V5    10.0   1_565     S
V23     Er30    10.0   1_564     S
V23     Er29    10.0   1_565     S
V24     V6    10.0   1_565     S
V24     Er29    10.0   1_565     S
V24     Er30    10.0   1_565     S
Er25     V20    10.0   1_545     S
Er25     V16    10.0   1_445     S
Er25     V19    10.0   1_545     S
Er25     V15    10.0   1_445     S
Er26     V19    10.0   1_546     S
Er26     V1    10.0   1_556     S
Er26     V15    10.0   1_446     S
Er26     V20    10.0   1_545     S
Er26     V16    10.0   1_445     S
Er27     V14    10.0   1_455     S
Er27     V13    10.0   1_455     S
Er28     V17    10.0   1_556     S
Er28     V3    10.0   1_556     S
Er28     V13    10.0   1_456     S
Er28     V14    10.0   1_455     S
Er29     V24    10.0   1_545     S
Er29     V12    10.0   1_545     S
Er29     V23    10.0   1_545     S
Er29     V11    10.0   1_545     S
Er30     V23    10.0   1_546     S
Er30     V5    10.0   1_556     S
Er30     V11    10.0   1_546     S
Er30     V24    10.0   1_545     S
Er30     V12    10.0   1_545     S
Er32     V21    10.0   1_556     S
Er32     V7    10.0   1_556     S
Er32     V9    10.0   1_556     S
