data_hms
_audit_creation_date              2019-12-31
_audit_creation_method            'Pymatgen'
_symmetry_space_group_name_H-M    'P1'
_symmetry_Int_Tables_number       1
loop_
_symmetry_equiv_pos_as_xyz
  x,y,z
_cell_length_a                    34.641
_cell_length_b                    34.641
_cell_length_c                    30.0
_cell_angle_alpha                 90.0
_cell_angle_beta                 90.0
_cell_angle_gamma                 120.0
loop_
_atom_site_label
_atom_site_type_symbol
_atom_site_fract_x
_atom_site_fract_y
_atom_site_fract_z
V1     V     0.0   0.0   0.0
V2     V     0.0   0.0   0.3333
V3     V     0.0   0.0   0.6667
V4     V     1.0   0.5   0.0
V5     V     1.0   0.5   0.3333
V6     V     1.0   0.5   0.6667
V7     V     0.5   0.0   0.0
V8     V     0.5   0.0   0.3333
V9     V     0.5   0.0   0.6667
V10     V     0.5   0.5   0.0
V11     V     0.5   0.5   0.3333
V12     V     0.5   0.5   0.6667
Er13     Er     0.3333   0.1667   0.0
Er14     Er     0.3333   0.1667   0.3333
Er15     Er     0.3333   0.1667   0.6667
Er16     Er     0.3333   0.6667   0.0
Er17     Er     0.3333   0.6667   0.3333
Er18     Er     0.3333   0.6667   0.6667
Er19     Er     0.8333   0.1667   0.0
Er20     Er     0.8333   0.1667   0.3333
Er21     Er     0.8333   0.1667   0.6667
Er22     Er     0.8333   0.6667   0.0
Er23     Er     0.8333   0.6667   0.3333
Er24     Er     0.8333   0.6667   0.6667
loop_
_geom_bond_atom_site_label_1
_geom_bond_atom_site_label_2
_geom_bond_distance
_geom_bond_site_symmetry_2
_ccdc_geom_bond_type
V1     Er13    10.0   .     S
V1     Er19    10.0   1_455     S
V1     Er22    10.0   1_445     S
V2     Er14    10.0   .     S
V2     Er20    10.0   1_455     S
V2     Er23    10.0   1_445     S
V3     Er15    10.0   .     S
V3     Er21    10.0   1_455     S
V3     Er24    10.0   1_445     S
V4     Er16    10.0   1_655     S
V4     Er22    10.0   .     S
V4     Er19    10.0   .     S
V5     Er17    10.0   1_655     S
V5     Er23    10.0   .     S
V5     Er20    10.0   .     S
V6     Er18    10.0   1_655     S
V6     Er24    10.0   .     S
V6     Er21    10.0   .     S
V7     Er19    10.0   .     S
V7     Er13    10.0   .     S
V7     Er16    10.0   1_545     S
V8     Er20    10.0   .     S
V8     Er14    10.0   .     S
V8     Er17    10.0   1_545     S
V9     Er21    10.0   .     S
V9     Er15    10.0   .     S
V9     Er18    10.0   1_545     S
V10     Er22    10.0   .     S
V10     Er16    10.0   .     S
V10     Er13    10.0   .     S
V11     Er23    10.0   .     S
V11     Er17    10.0   .     S
V11     Er14    10.0   .     S
V12     Er24    10.0   .     S
V12     Er18    10.0   .     S
V12     Er15    10.0   .     S
Er13     Er14    10.0   .     S
Er13     Er15    10.0   1_554     S
Er14     Er15    10.0   .     S
Er15     Er13    10.0   1_556     S
Er16     Er17    10.0   .     S
Er16     Er18    10.0   1_554     S
Er16     V4    10.0   1_455     S
Er16     V7    10.0   1_565     S
Er17     Er18    10.0   .     S
Er17     V5    10.0   1_455     S
Er17     V8    10.0   1_565     S
Er18     Er16    10.0   1_556     S
Er18     V6    10.0   1_455     S
Er18     V9    10.0   1_565     S
Er19     Er20    10.0   .     S
Er19     Er21    10.0   1_554     S
Er19     V1    10.0   1_655     S
Er20     Er21    10.0   .     S
Er20     V2    10.0   1_655     S
Er21     Er19    10.0   1_556     S
Er21     V3    10.0   1_655     S
Er22     Er23    10.0   .     S
Er22     Er24    10.0   1_554     S
Er22     V1    10.0   1_665     S
Er23     Er24    10.0   .     S
Er23     V2    10.0   1_665     S
Er24     Er22    10.0   1_556     S
Er24     V3    10.0   1_665     S
