data_ith
_audit_creation_date              2019-12-31
_audit_creation_method            'Pymatgen'
_symmetry_space_group_name_H-M    'P1'
_symmetry_Int_Tables_number       1
loop_
_symmetry_equiv_pos_as_xyz
  x,y,z
_cell_length_a                    35.777
_cell_length_b                    35.777
_cell_length_c                    35.777
_cell_angle_alpha                 90.0
_cell_angle_beta                 90.0
_cell_angle_gamma                 90.0
loop_
_atom_site_label
_atom_site_type_symbol
_atom_site_fract_x
_atom_site_fract_y
_atom_site_fract_z
V1     V     0.0   0.125   0.25
V2     V     0.0   0.125   0.75
V3     V     0.0   0.625   0.25
V4     V     0.0   0.625   0.75
V5     V     0.5   0.125   0.25
V6     V     0.5   0.125   0.75
V7     V     0.5   0.625   0.25
V8     V     0.5   0.625   0.75
Er9     Er     0.0   0.0   0.0
Er10     Er     0.0   0.0   0.5
Er11     Er     0.0   0.5   0.0
Er12     Er     0.0   0.5   0.5
Er13     Er     0.5   0.0   0.0
Er14     Er     0.5   0.0   0.5
Er15     Er     0.5   0.5   0.0
Er16     Er     0.5   0.5   0.5
V17     V     0.25   0.0   0.125
V18     V     0.25   0.0   0.625
V19     V     0.25   0.5   0.125
V20     V     0.25   0.5   0.625
V21     V     0.75   0.0   0.125
V22     V     0.75   0.0   0.625
V23     V     0.75   0.5   0.125
V24     V     0.75   0.5   0.625
Er25     Er     0.25   0.25   0.25
Er26     Er     0.25   0.25   0.75
Er27     Er     0.25   0.75   0.25
Er28     Er     0.25   0.75   0.75
Er29     Er     0.75   0.25   0.25
Er30     Er     0.75   0.25   0.75
Er31     Er     0.75   0.75   0.25
Er32     Er     0.75   0.75   0.75
V33     V     0.125   0.25   0.0
V34     V     0.125   0.25   0.5
V35     V     0.125   0.75   0.0
V36     V     0.125   0.75   0.5
V37     V     0.625   0.25   0.0
V38     V     0.625   0.25   0.5
V39     V     0.625   0.75   0.0
V40     V     0.625   0.75   0.5
V41     V     0.0   0.375   0.25
V42     V     0.0   0.375   0.75
V43     V     0.0   0.875   0.25
V44     V     0.0   0.875   0.75
V45     V     0.5   0.375   0.25
V46     V     0.5   0.375   0.75
V47     V     0.5   0.875   0.25
V48     V     0.5   0.875   0.75
V49     V     0.375   0.25   0.0
V50     V     0.375   0.25   0.5
V51     V     0.375   0.75   0.0
V52     V     0.375   0.75   0.5
V53     V     0.875   0.25   0.0
V54     V     0.875   0.25   0.5
V55     V     0.875   0.75   0.0
V56     V     0.875   0.75   0.5
V57     V     0.25   0.0   0.375
V58     V     0.25   0.0   0.875
V59     V     0.25   0.5   0.375
V60     V     0.25   0.5   0.875
V61     V     0.75   0.0   0.375
V62     V     0.75   0.0   0.875
V63     V     0.75   0.5   0.375
V64     V     0.75   0.5   0.875
loop_
_geom_bond_atom_site_label_1
_geom_bond_atom_site_label_2
_geom_bond_distance
_geom_bond_site_symmetry_2
_ccdc_geom_bond_type
V1     Er25    10.0   .     S
V1     Er29    10.0   1_455     S
V1     Er10    10.0   .     S
V1     Er9    10.0   .     S
V2     Er26    10.0   .     S
V2     Er30    10.0   1_455     S
V2     Er9    10.0   1_556     S
V2     Er10    10.0   .     S
V3     Er27    10.0   .     S
V3     Er31    10.0   1_455     S
V3     Er12    10.0   .     S
V3     Er11    10.0   .     S
V4     Er28    10.0   .     S
V4     Er32    10.0   1_455     S
V4     Er11    10.0   1_556     S
V4     Er12    10.0   .     S
V5     Er29    10.0   .     S
V5     Er25    10.0   .     S
V5     Er14    10.0   .     S
V5     Er13    10.0   .     S
V6     Er30    10.0   .     S
V6     Er26    10.0   .     S
V6     Er13    10.0   1_556     S
V6     Er14    10.0   .     S
V7     Er31    10.0   .     S
V7     Er27    10.0   .     S
V7     Er16    10.0   .     S
V7     Er15    10.0   .     S
V8     Er32    10.0   .     S
V8     Er28    10.0   .     S
V8     Er15    10.0   1_556     S
V8     Er16    10.0   .     S
Er9     V35    10.0   1_545     S
Er9     V55    10.0   1_445     S
Er9     V33    10.0   .     S
Er9     V53    10.0   1_455     S
Er9     V21    10.0   1_455     S
Er9     V62    10.0   1_454     S
Er9     V17    10.0   .     S
Er9     V58    10.0   1_554     S
Er9     V44    10.0   1_544     S
Er9     V2    10.0   1_554     S
Er9     V43    10.0   1_545     S
Er10     V36    10.0   1_545     S
Er10     V56    10.0   1_445     S
Er10     V34    10.0   .     S
Er10     V54    10.0   1_455     S
Er10     V22    10.0   1_455     S
Er10     V61    10.0   1_455     S
Er10     V18    10.0   .     S
Er10     V57    10.0   .     S
Er10     V43    10.0   1_545     S
Er10     V44    10.0   1_545     S
Er11     V33    10.0   .     S
Er11     V53    10.0   1_455     S
Er11     V35    10.0   .     S
Er11     V55    10.0   1_455     S
Er11     V23    10.0   1_455     S
Er11     V64    10.0   1_454     S
Er11     V19    10.0   .     S
Er11     V60    10.0   1_554     S
Er11     V42    10.0   1_554     S
Er11     V4    10.0   1_554     S
Er11     V41    10.0   .     S
Er12     V34    10.0   .     S
Er12     V54    10.0   1_455     S
Er12     V36    10.0   .     S
Er12     V56    10.0   1_455     S
Er12     V24    10.0   1_455     S
Er12     V63    10.0   1_455     S
Er12     V20    10.0   .     S
Er12     V59    10.0   .     S
Er12     V41    10.0   .     S
Er12     V42    10.0   .     S
Er13     V39    10.0   1_545     S
Er13     V51    10.0   1_545     S
Er13     V37    10.0   .     S
Er13     V49    10.0   .     S
Er13     V17    10.0   .     S
Er13     V58    10.0   1_554     S
Er13     V21    10.0   .     S
Er13     V62    10.0   1_554     S
Er13     V48    10.0   1_544     S
Er13     V6    10.0   1_554     S
Er13     V47    10.0   1_545     S
Er14     V40    10.0   1_545     S
Er14     V52    10.0   1_545     S
Er14     V38    10.0   .     S
Er14     V50    10.0   .     S
Er14     V18    10.0   .     S
Er14     V57    10.0   .     S
Er14     V22    10.0   .     S
Er14     V61    10.0   .     S
Er14     V47    10.0   1_545     S
Er14     V48    10.0   1_545     S
Er15     V37    10.0   .     S
Er15     V49    10.0   .     S
Er15     V39    10.0   .     S
Er15     V51    10.0   .     S
Er15     V19    10.0   .     S
Er15     V60    10.0   1_554     S
Er15     V23    10.0   .     S
Er15     V64    10.0   1_554     S
Er15     V46    10.0   1_554     S
Er15     V8    10.0   1_554     S
Er15     V45    10.0   .     S
Er16     V38    10.0   .     S
Er16     V50    10.0   .     S
Er16     V40    10.0   .     S
Er16     V52    10.0   .     S
Er16     V20    10.0   .     S
Er16     V59    10.0   .     S
Er16     V24    10.0   .     S
Er16     V63    10.0   .     S
Er16     V45    10.0   .     S
Er16     V46    10.0   .     S
V17     Er25    10.0   .     S
V17     Er27    10.0   1_545     S
V18     Er26    10.0   .     S
V18     Er28    10.0   1_545     S
V19     Er27    10.0   .     S
V19     Er25    10.0   .     S
V20     Er28    10.0   .     S
V20     Er26    10.0   .     S
V21     Er29    10.0   .     S
V21     Er31    10.0   1_545     S
V21     Er9    10.0   1_655     S
V22     Er30    10.0   .     S
V22     Er32    10.0   1_545     S
V22     Er10    10.0   1_655     S
V23     Er31    10.0   .     S
V23     Er29    10.0   .     S
V23     Er11    10.0   1_655     S
V24     Er32    10.0   .     S
V24     Er30    10.0   .     S
V24     Er12    10.0   1_655     S
Er25     V41    10.0   .     S
Er25     V45    10.0   .     S
Er25     V57    10.0   .     S
Er25     V49    10.0   .     S
Er25     V33    10.0   .     S
Er25     V34    10.0   .     S
Er25     V50    10.0   .     S
Er25     V59    10.0   .     S
Er26     V42    10.0   .     S
Er26     V46    10.0   .     S
Er26     V58    10.0   .     S
Er26     V50    10.0   .     S
Er26     V34    10.0   .     S
Er26     V33    10.0   1_556     S
Er26     V49    10.0   1_556     S
Er26     V60    10.0   .     S
Er27     V43    10.0   .     S
Er27     V47    10.0   .     S
Er27     V59    10.0   .     S
Er27     V51    10.0   .     S
Er27     V35    10.0   .     S
Er27     V36    10.0   .     S
Er27     V52    10.0   .     S
Er27     V57    10.0   1_565     S
Er27     V17    10.0   1_565     S
Er28     V44    10.0   .     S
Er28     V48    10.0   .     S
Er28     V60    10.0   .     S
Er28     V52    10.0   .     S
Er28     V36    10.0   .     S
Er28     V35    10.0   1_556     S
Er28     V51    10.0   1_556     S
Er28     V58    10.0   1_565     S
Er28     V18    10.0   1_565     S
Er29     V45    10.0   .     S
Er29     V41    10.0   1_655     S
Er29     V1    10.0   1_655     S
Er29     V61    10.0   .     S
Er29     V53    10.0   .     S
Er29     V37    10.0   .     S
Er29     V38    10.0   .     S
Er29     V54    10.0   .     S
Er29     V63    10.0   .     S
Er30     V46    10.0   .     S
Er30     V42    10.0   1_655     S
Er30     V2    10.0   1_655     S
Er30     V62    10.0   .     S
Er30     V54    10.0   .     S
Er30     V38    10.0   .     S
Er30     V37    10.0   1_556     S
Er30     V53    10.0   1_556     S
Er30     V64    10.0   .     S
Er31     V47    10.0   .     S
Er31     V43    10.0   1_655     S
Er31     V3    10.0   1_655     S
Er31     V63    10.0   .     S
Er31     V55    10.0   .     S
Er31     V39    10.0   .     S
Er31     V40    10.0   .     S
Er31     V56    10.0   .     S
Er31     V61    10.0   1_565     S
Er31     V21    10.0   1_565     S
Er32     V48    10.0   .     S
Er32     V44    10.0   1_655     S
Er32     V4    10.0   1_655     S
Er32     V64    10.0   .     S
Er32     V56    10.0   .     S
Er32     V40    10.0   .     S
Er32     V39    10.0   1_556     S
Er32     V55    10.0   1_556     S
Er32     V62    10.0   1_565     S
Er32     V22    10.0   1_565     S
V33     Er26    10.0   1_554     S
V35     Er9    10.0   1_565     S
V35     Er28    10.0   1_554     S
V36     Er10    10.0   1_565     S
V37     Er30    10.0   1_554     S
V39     Er13    10.0   1_565     S
V39     Er32    10.0   1_554     S
V40     Er14    10.0   1_565     S
V41     Er29    10.0   1_455     S
V42     Er30    10.0   1_455     S
V42     Er11    10.0   1_556     S
V43     Er31    10.0   1_455     S
V43     Er10    10.0   1_565     S
V43     Er9    10.0   1_565     S
V44     Er32    10.0   1_455     S
V44     Er9    10.0   1_566     S
V44     Er10    10.0   1_565     S
V46     Er15    10.0   1_556     S
V47     Er14    10.0   1_565     S
V47     Er13    10.0   1_565     S
V48     Er13    10.0   1_566     S
V48     Er14    10.0   1_565     S
V49     Er26    10.0   1_554     S
V51     Er13    10.0   1_565     S
V51     Er28    10.0   1_554     S
V52     Er14    10.0   1_565     S
V53     Er11    10.0   1_655     S
V53     Er9    10.0   1_655     S
V53     Er30    10.0   1_554     S
V54     Er12    10.0   1_655     S
V54     Er10    10.0   1_655     S
V55     Er9    10.0   1_665     S
V55     Er11    10.0   1_655     S
V55     Er32    10.0   1_554     S
V56     Er10    10.0   1_665     S
V56     Er12    10.0   1_655     S
V57     Er27    10.0   1_545     S
V58     Er28    10.0   1_545     S
V58     Er13    10.0   1_556     S
V58     Er9    10.0   1_556     S
V60     Er15    10.0   1_556     S
V60     Er11    10.0   1_556     S
V61     Er31    10.0   1_545     S
V61     Er10    10.0   1_655     S
V62     Er32    10.0   1_545     S
V62     Er9    10.0   1_656     S
V62     Er13    10.0   1_556     S
V63     Er12    10.0   1_655     S
V64     Er11    10.0   1_656     S
V64     Er15    10.0   1_556     S
