data_kag-d
_audit_creation_date              2019-12-31
_audit_creation_method            'Pymatgen'
_symmetry_space_group_name_H-M    'P1'
_symmetry_Int_Tables_number       1
loop_
_symmetry_equiv_pos_as_xyz
  x,y,z
_cell_length_a                    34.641
_cell_length_b                    34.641
_cell_length_c                    30.0
_cell_angle_alpha                 90.0
_cell_angle_beta                 90.0
_cell_angle_gamma                 120.0
loop_
_atom_site_label
_atom_site_type_symbol
_atom_site_fract_x
_atom_site_fract_y
_atom_site_fract_z
Er1     Er     0.3333   0.1667   0.0
Er2     Er     0.3333   0.1667   0.3333
Er3     Er     0.3333   0.1667   0.6667
Er4     Er     0.3333   0.6667   0.0
Er5     Er     0.3333   0.6667   0.3333
Er6     Er     0.3333   0.6667   0.6667
Er7     Er     0.8333   0.1667   0.0
Er8     Er     0.8333   0.1667   0.3333
Er9     Er     0.8333   0.1667   0.6667
Er10     Er     0.8333   0.6667   0.0
Er11     Er     0.8333   0.6667   0.3333
Er12     Er     0.8333   0.6667   0.6667
V13     V     0.0   0.0   0.0
V14     V     0.0   0.0   0.3333
V15     V     0.0   0.0   0.6667
V16     V     1.0   0.5   0.0
V17     V     1.0   0.5   0.3333
V18     V     1.0   0.5   0.6667
V19     V     0.5   0.0   0.0
V20     V     0.5   0.0   0.3333
V21     V     0.5   0.0   0.6667
V22     V     0.5   0.5   0.0
V23     V     0.5   0.5   0.3333
V24     V     0.5   0.5   0.6667
Er25     Er     0.1667   0.3333   0.0
Er26     Er     0.1667   0.3333   0.3333
Er27     Er     0.1667   0.3333   0.6667
Er28     Er     0.1667   0.8333   0.0
Er29     Er     0.1667   0.8333   0.3333
Er30     Er     0.1667   0.8333   0.6667
Er31     Er     0.6667   0.3333   0.0
Er32     Er     0.6667   0.3333   0.3333
Er33     Er     0.6667   0.3333   0.6667
Er34     Er     0.6667   0.8333   0.0
Er35     Er     0.6667   0.8333   0.3333
Er36     Er     0.6667   0.8333   0.6667
loop_
_geom_bond_atom_site_label_1
_geom_bond_atom_site_label_2
_geom_bond_distance
_geom_bond_site_symmetry_2
_ccdc_geom_bond_type
Er1     Er2    10.0   .     S
Er1     Er3    10.0   1_554     S
Er1     V13    10.0   .     S
Er1     V22    10.0   .     S
Er1     V19    10.0   .     S
Er2     Er3    10.0   .     S
Er2     V14    10.0   .     S
Er2     V23    10.0   .     S
Er2     V20    10.0   .     S
Er3     Er1    10.0   1_556     S
Er3     V15    10.0   .     S
Er3     V24    10.0   .     S
Er3     V21    10.0   .     S
Er4     Er5    10.0   .     S
Er4     Er6    10.0   1_554     S
Er4     V16    10.0   1_455     S
Er4     V19    10.0   1_565     S
Er4     V22    10.0   .     S
Er5     Er6    10.0   .     S
Er5     V17    10.0   1_455     S
Er5     V20    10.0   1_565     S
Er5     V23    10.0   .     S
Er6     Er4    10.0   1_556     S
Er6     V18    10.0   1_455     S
Er6     V21    10.0   1_565     S
Er6     V24    10.0   .     S
Er7     Er8    10.0   .     S
Er7     Er9    10.0   1_554     S
Er7     V19    10.0   .     S
Er7     V16    10.0   .     S
Er7     V13    10.0   1_655     S
Er8     Er9    10.0   .     S
Er8     V20    10.0   .     S
Er8     V17    10.0   .     S
Er8     V14    10.0   1_655     S
Er9     Er7    10.0   1_556     S
Er9     V21    10.0   .     S
Er9     V18    10.0   .     S
Er9     V15    10.0   1_655     S
Er10     Er11    10.0   .     S
Er10     Er12    10.0   1_554     S
Er10     V22    10.0   .     S
Er10     V13    10.0   1_665     S
Er10     V16    10.0   .     S
Er11     Er12    10.0   .     S
Er11     V23    10.0   .     S
Er11     V14    10.0   1_665     S
Er11     V17    10.0   .     S
Er12     Er10    10.0   1_556     S
Er12     V24    10.0   .     S
Er12     V15    10.0   1_665     S
Er12     V18    10.0   .     S
V13     Er10    10.0   1_445     S
V13     Er7    10.0   1_455     S
V13     V14    10.0   .     S
V13     V15    10.0   1_554     S
V13     Er28    10.0   1_545     S
V13     Er34    10.0   1_445     S
V13     Er25    10.0   .     S
V14     Er11    10.0   1_445     S
V14     Er8    10.0   1_455     S
V14     V15    10.0   .     S
V14     Er29    10.0   1_545     S
V14     Er35    10.0   1_445     S
V14     Er26    10.0   .     S
V15     Er12    10.0   1_445     S
V15     Er9    10.0   1_455     S
V15     V13    10.0   1_556     S
V15     Er30    10.0   1_545     S
V15     Er36    10.0   1_445     S
V15     Er27    10.0   .     S
V16     Er4    10.0   1_655     S
V16     V17    10.0   .     S
V16     V18    10.0   1_554     S
V16     Er25    10.0   1_655     S
V16     Er31    10.0   .     S
V16     Er28    10.0   1_655     S
V17     Er5    10.0   1_655     S
V17     V18    10.0   .     S
V17     Er26    10.0   1_655     S
V17     Er32    10.0   .     S
V17     Er29    10.0   1_655     S
V18     Er6    10.0   1_655     S
V18     V16    10.0   1_556     S
V18     Er27    10.0   1_655     S
V18     Er33    10.0   .     S
V18     Er30    10.0   1_655     S
V19     Er4    10.0   1_545     S
V19     V20    10.0   .     S
V19     V21    10.0   1_554     S
V19     Er34    10.0   1_545     S
V19     Er28    10.0   1_545     S
V19     Er31    10.0   .     S
V20     Er5    10.0   1_545     S
V20     V21    10.0   .     S
V20     Er35    10.0   1_545     S
V20     Er29    10.0   1_545     S
V20     Er32    10.0   .     S
V21     Er6    10.0   1_545     S
V21     V19    10.0   1_556     S
V21     Er36    10.0   1_545     S
V21     Er30    10.0   1_545     S
V21     Er33    10.0   .     S
V22     V23    10.0   .     S
V22     V24    10.0   1_554     S
V22     Er31    10.0   .     S
V22     Er25    10.0   .     S
V22     Er34    10.0   .     S
V23     V24    10.0   .     S
V23     Er32    10.0   .     S
V23     Er26    10.0   .     S
V23     Er35    10.0   .     S
V24     V22    10.0   1_556     S
V24     Er33    10.0   .     S
V24     Er27    10.0   .     S
V24     Er36    10.0   .     S
Er25     Er26    10.0   .     S
Er25     Er27    10.0   1_554     S
Er25     V16    10.0   1_455     S
Er26     Er27    10.0   .     S
Er26     V17    10.0   1_455     S
Er27     Er25    10.0   1_556     S
Er27     V18    10.0   1_455     S
Er28     Er29    10.0   .     S
Er28     Er30    10.0   1_554     S
Er28     V13    10.0   1_565     S
Er28     V19    10.0   1_565     S
Er28     V16    10.0   1_455     S
Er29     Er30    10.0   .     S
Er29     V14    10.0   1_565     S
Er29     V20    10.0   1_565     S
Er29     V17    10.0   1_455     S
Er30     Er28    10.0   1_556     S
Er30     V15    10.0   1_565     S
Er30     V21    10.0   1_565     S
Er30     V18    10.0   1_455     S
Er31     Er32    10.0   .     S
Er31     Er33    10.0   1_554     S
Er32     Er33    10.0   .     S
Er33     Er31    10.0   1_556     S
Er34     Er35    10.0   .     S
Er34     Er36    10.0   1_554     S
Er34     V19    10.0   1_565     S
Er34     V13    10.0   1_665     S
Er35     Er36    10.0   .     S
Er35     V20    10.0   1_565     S
Er35     V14    10.0   1_665     S
Er36     Er34    10.0   1_556     S
Er36     V21    10.0   1_565     S
Er36     V15    10.0   1_665     S
