data_knc
_audit_creation_date              2019-12-31
_audit_creation_method            'Pymatgen'
_symmetry_space_group_name_H-M    'P1'
_symmetry_Int_Tables_number       1
loop_
_symmetry_equiv_pos_as_xyz
  x,y,z
_cell_length_a                    29.2118
_cell_length_b                    29.2118
_cell_length_c                    46.188
_cell_angle_alpha                 90.0
_cell_angle_beta                 90.0
_cell_angle_gamma                 90.0
loop_
_atom_site_label
_atom_site_type_symbol
_atom_site_fract_x
_atom_site_fract_y
_atom_site_fract_z
V1     V     0.375   0.25   0.375
V2     V     0.375   0.75   0.375
V3     V     0.875   0.25   0.375
V4     V     0.875   0.75   0.375
V5     V     0.125   0.25   0.375
V6     V     0.125   0.75   0.375
V7     V     0.625   0.25   0.375
V8     V     0.625   0.75   0.375
Ti9     Ti     0.25   0.0   0.5
Ti10     Ti     0.25   0.5   0.5
Ti11     Ti     0.75   0.0   0.5
Ti12     Ti     0.75   0.5   0.5
V13     V     0.375   0.25   0.625
V14     V     0.375   0.75   0.625
V15     V     0.875   0.25   0.625
V16     V     0.875   0.75   0.625
V17     V     0.125   0.25   0.625
V18     V     0.125   0.75   0.625
V19     V     0.625   0.25   0.625
V20     V     0.625   0.75   0.625
Er21     Er     0.0   0.0   0.25
Er22     Er     0.0   0.5   0.25
Er23     Er     0.5   0.0   0.25
Er24     Er     0.5   0.5   0.25
Ti25     Ti     0.0   0.25   0.0
Ti26     Ti     0.0   0.75   0.0
Ti27     Ti     0.5   0.25   0.0
Ti28     Ti     0.5   0.75   0.0
V29     V     0.25   0.375   0.875
V30     V     0.25   0.875   0.875
V31     V     0.75   0.375   0.875
V32     V     0.75   0.875   0.875
V33     V     0.25   0.125   0.875
V34     V     0.25   0.625   0.875
V35     V     0.75   0.125   0.875
V36     V     0.75   0.625   0.875
Er37     Er     0.0   0.0   0.75
Er38     Er     0.0   0.5   0.75
Er39     Er     0.5   0.0   0.75
Er40     Er     0.5   0.5   0.75
V41     V     0.25   0.125   0.125
V42     V     0.25   0.625   0.125
V43     V     0.75   0.125   0.125
V44     V     0.75   0.625   0.125
V45     V     0.25   0.375   0.125
V46     V     0.25   0.875   0.125
V47     V     0.75   0.375   0.125
V48     V     0.75   0.875   0.125
loop_
_geom_bond_atom_site_label_1
_geom_bond_atom_site_label_2
_geom_bond_distance
_geom_bond_site_symmetry_2
_ccdc_geom_bond_type
V1     Ti10    10.0   .     S
V1     Ti9    10.0   .     S
V1     Er24    10.0   .     S
V1     Er23    10.0   .     S
V2     Ti9    10.0   1_565     S
V2     Ti10    10.0   .     S
V2     Er23    10.0   1_565     S
V2     Er24    10.0   .     S
V3     Ti12    10.0   .     S
V3     Ti11    10.0   .     S
V3     Er22    10.0   1_655     S
V3     Er21    10.0   1_655     S
V4     Ti11    10.0   1_565     S
V4     Ti12    10.0   .     S
V4     Er21    10.0   1_665     S
V4     Er22    10.0   1_655     S
V5     Ti10    10.0   .     S
V5     Ti9    10.0   .     S
V5     Er22    10.0   .     S
V5     Er21    10.0   .     S
V6     Ti9    10.0   1_565     S
V6     Ti10    10.0   .     S
V6     Er21    10.0   1_565     S
V6     Er22    10.0   .     S
V7     Ti12    10.0   .     S
V7     Ti11    10.0   .     S
V7     Er24    10.0   .     S
V7     Er23    10.0   .     S
V8     Ti11    10.0   1_565     S
V8     Ti12    10.0   .     S
V8     Er23    10.0   1_565     S
V8     Er24    10.0   .     S
Ti9     V2    10.0   1_545     S
Ti9     V6    10.0   1_545     S
Ti9     V18    10.0   1_545     S
Ti9     V14    10.0   1_545     S
Ti9     V13    10.0   .     S
Ti9     V17    10.0   .     S
Ti10     V17    10.0   .     S
Ti10     V13    10.0   .     S
Ti10     V14    10.0   .     S
Ti10     V18    10.0   .     S
Ti11     V4    10.0   1_545     S
Ti11     V8    10.0   1_545     S
Ti11     V20    10.0   1_545     S
Ti11     V16    10.0   1_545     S
Ti11     V15    10.0   .     S
Ti11     V19    10.0   .     S
Ti12     V19    10.0   .     S
Ti12     V15    10.0   .     S
Ti12     V16    10.0   .     S
Ti12     V20    10.0   .     S
V13     Er40    10.0   .     S
V13     Er39    10.0   .     S
V14     Er39    10.0   1_565     S
V14     Er40    10.0   .     S
V14     Ti9    10.0   1_565     S
V15     Er38    10.0   1_655     S
V15     Er37    10.0   1_655     S
V16     Er37    10.0   1_665     S
V16     Er38    10.0   1_655     S
V16     Ti11    10.0   1_565     S
V17     Er38    10.0   .     S
V17     Er37    10.0   .     S
V18     Er37    10.0   1_565     S
V18     Er38    10.0   .     S
V18     Ti9    10.0   1_565     S
V19     Er40    10.0   .     S
V19     Er39    10.0   .     S
V20     Er39    10.0   1_565     S
V20     Er40    10.0   .     S
V20     Ti11    10.0   1_565     S
Er21     V4    10.0   1_445     S
Er21     V6    10.0   1_545     S
Er21     V3    10.0   1_455     S
Er21     V41    10.0   .     S
Er21     V46    10.0   1_545     S
Er21     V48    10.0   1_445     S
Er21     V43    10.0   1_455     S
Er22     V3    10.0   1_455     S
Er22     V4    10.0   1_455     S
Er22     V42    10.0   .     S
Er22     V45    10.0   .     S
Er22     V47    10.0   1_455     S
Er22     V44    10.0   1_455     S
Er23     V2    10.0   1_545     S
Er23     V8    10.0   1_545     S
Er23     V43    10.0   .     S
Er23     V48    10.0   1_545     S
Er23     V46    10.0   1_545     S
Er23     V41    10.0   .     S
Er24     V44    10.0   .     S
Er24     V47    10.0   .     S
Er24     V45    10.0   .     S
Er24     V42    10.0   .     S
Ti25     V35    10.0   1_454     S
Ti25     V31    10.0   1_454     S
Ti25     V29    10.0   1_554     S
Ti25     V33    10.0   1_554     S
Ti25     V47    10.0   1_455     S
Ti25     V43    10.0   1_455     S
Ti25     V41    10.0   .     S
Ti25     V45    10.0   .     S
Ti26     V36    10.0   1_454     S
Ti26     V32    10.0   1_454     S
Ti26     V30    10.0   1_554     S
Ti26     V34    10.0   1_554     S
Ti26     V48    10.0   1_455     S
Ti26     V44    10.0   1_455     S
Ti26     V42    10.0   .     S
Ti26     V46    10.0   .     S
Ti27     V33    10.0   1_554     S
Ti27     V29    10.0   1_554     S
Ti27     V31    10.0   1_554     S
Ti27     V35    10.0   1_554     S
Ti27     V45    10.0   .     S
Ti27     V41    10.0   .     S
Ti27     V43    10.0   .     S
Ti27     V47    10.0   .     S
Ti28     V34    10.0   1_554     S
Ti28     V30    10.0   1_554     S
Ti28     V32    10.0   1_554     S
Ti28     V36    10.0   1_554     S
Ti28     V46    10.0   .     S
Ti28     V42    10.0   .     S
Ti28     V44    10.0   .     S
Ti28     V48    10.0   .     S
V29     Er40    10.0   .     S
V29     Er38    10.0   .     S
V29     Ti27    10.0   1_556     S
V29     Ti25    10.0   1_556     S
V30     Er39    10.0   1_565     S
V30     Er37    10.0   1_565     S
V30     Ti28    10.0   1_556     S
V30     Ti26    10.0   1_556     S
V31     Er38    10.0   1_655     S
V31     Er40    10.0   .     S
V31     Ti25    10.0   1_656     S
V31     Ti27    10.0   1_556     S
V32     Er37    10.0   1_665     S
V32     Er39    10.0   1_565     S
V32     Ti26    10.0   1_656     S
V32     Ti28    10.0   1_556     S
V33     Er39    10.0   .     S
V33     Er37    10.0   .     S
V33     Ti27    10.0   1_556     S
V33     Ti25    10.0   1_556     S
V34     Er40    10.0   .     S
V34     Er38    10.0   .     S
V34     Ti28    10.0   1_556     S
V34     Ti26    10.0   1_556     S
V35     Er37    10.0   1_655     S
V35     Er39    10.0   .     S
V35     Ti25    10.0   1_656     S
V35     Ti27    10.0   1_556     S
V36     Er38    10.0   1_655     S
V36     Er40    10.0   .     S
V36     Ti26    10.0   1_656     S
V36     Ti28    10.0   1_556     S
Er37     V18    10.0   1_545     S
Er37     V16    10.0   1_445     S
Er37     V15    10.0   1_455     S
Er37     V35    10.0   1_455     S
Er37     V32    10.0   1_445     S
Er37     V30    10.0   1_545     S
Er38     V15    10.0   1_455     S
Er38     V16    10.0   1_455     S
Er38     V36    10.0   1_455     S
Er38     V31    10.0   1_455     S
Er39     V20    10.0   1_545     S
Er39     V14    10.0   1_545     S
Er39     V30    10.0   1_545     S
Er39     V32    10.0   1_545     S
V43     Er21    10.0   1_655     S
V43     Ti25    10.0   1_655     S
V44     Er22    10.0   1_655     S
V44     Ti26    10.0   1_655     S
V46     Er21    10.0   1_565     S
V46     Er23    10.0   1_565     S
V47     Er22    10.0   1_655     S
V47     Ti25    10.0   1_655     S
V48     Er23    10.0   1_565     S
V48     Er21    10.0   1_665     S
V48     Ti26    10.0   1_655     S
