data_kwh
_audit_creation_date              2019-12-31
_audit_creation_method            'Pymatgen'
_symmetry_space_group_name_H-M    'P1'
_symmetry_Int_Tables_number       1
loop_
_symmetry_equiv_pos_as_xyz
  x,y,z
_cell_length_a                    32.6598
_cell_length_b                    32.6598
_cell_length_c                    40.0
_cell_angle_alpha                 90.0
_cell_angle_beta                 90.0
_cell_angle_gamma                 120.0
loop_
_atom_site_label
_atom_site_type_symbol
_atom_site_fract_x
_atom_site_fract_y
_atom_site_fract_z
V1     V     0.0   0.0   0.125
V2     V     0.0   0.0   0.625
V3     V     0.0   0.5   0.125
V4     V     0.0   0.5   0.625
V5     V     0.5   0.0   0.125
V6     V     0.5   0.0   0.625
V7     V     0.5   0.5   0.125
V8     V     0.5   0.5   0.625
V9     V     0.1667   0.3333   0.2083
V10     V     0.1667   0.3333   0.7083
V11     V     0.1667   0.8333   0.2083
V12     V     0.1667   0.8333   0.7083
V13     V     0.6667   0.3333   0.2083
V14     V     0.6667   0.3333   0.7083
V15     V     0.6667   0.8333   0.2083
V16     V     0.6667   0.8333   0.7083
V17     V     0.1667   0.3333   0.4583
V18     V     0.1667   0.3333   0.9583
V19     V     0.1667   0.8333   0.4583
V20     V     0.1667   0.8333   0.9583
V21     V     0.6667   0.3333   0.4583
V22     V     0.6667   0.3333   0.9583
V23     V     0.6667   0.8333   0.4583
V24     V     0.6667   0.8333   0.9583
V25     V     0.3333   0.1667   0.0417
V26     V     0.3333   0.1667   0.5417
V27     V     0.3333   0.6667   0.0417
V28     V     0.3333   0.6667   0.5417
V29     V     0.8333   0.1667   0.0417
V30     V     0.8333   0.1667   0.5417
V31     V     0.8333   0.6667   0.0417
V32     V     0.8333   0.6667   0.5417
V33     V     0.3333   0.1667   0.2917
V34     V     0.3333   0.1667   0.7917
V35     V     0.3333   0.6667   0.2917
V36     V     0.3333   0.6667   0.7917
V37     V     0.8333   0.1667   0.2917
V38     V     0.8333   0.1667   0.7917
V39     V     0.8333   0.6667   0.2917
V40     V     0.8333   0.6667   0.7917
V41     V     0.0   0.0   0.375
V42     V     0.0   0.0   0.875
V43     V     0.0   0.5   0.375
V44     V     0.0   0.5   0.875
V45     V     0.5   0.0   0.375
V46     V     0.5   0.0   0.875
V47     V     0.5   0.5   0.375
V48     V     0.5   0.5   0.875
loop_
_geom_bond_atom_site_label_1
_geom_bond_atom_site_label_2
_geom_bond_distance
_geom_bond_site_symmetry_2
_ccdc_geom_bond_type
V1     V15    10.0   1_445     S
V1     V9    10.0   .     S
V1     V31    10.0   1_445     S
V1     V25    10.0   .     S
V1     V29    10.0   1_455     S
V1     V11    10.0   1_545     S
V1     V41    10.0   .     S
V2     V16    10.0   1_445     S
V2     V10    10.0   .     S
V2     V32    10.0   1_445     S
V2     V26    10.0   .     S
V2     V30    10.0   1_455     S
V2     V12    10.0   1_545     S
V2     V42    10.0   .     S
V3     V13    10.0   1_455     S
V3     V11    10.0   .     S
V3     V29    10.0   1_455     S
V3     V27    10.0   .     S
V3     V31    10.0   1_455     S
V3     V9    10.0   .     S
V3     V43    10.0   .     S
V4     V14    10.0   1_455     S
V4     V12    10.0   .     S
V4     V30    10.0   1_455     S
V4     V28    10.0   .     S
V4     V32    10.0   1_455     S
V4     V10    10.0   .     S
V4     V44    10.0   .     S
V5     V11    10.0   1_545     S
V5     V13    10.0   .     S
V5     V27    10.0   1_545     S
V5     V29    10.0   .     S
V5     V25    10.0   .     S
V5     V15    10.0   1_545     S
V5     V45    10.0   .     S
V6     V12    10.0   1_545     S
V6     V14    10.0   .     S
V6     V28    10.0   1_545     S
V6     V30    10.0   .     S
V6     V26    10.0   .     S
V6     V16    10.0   1_545     S
V6     V46    10.0   .     S
V7     V9    10.0   .     S
V7     V15    10.0   .     S
V7     V25    10.0   .     S
V7     V31    10.0   .     S
V7     V27    10.0   .     S
V7     V13    10.0   .     S
V7     V47    10.0   .     S
V8     V10    10.0   .     S
V8     V16    10.0   .     S
V8     V26    10.0   .     S
V8     V32    10.0   .     S
V8     V28    10.0   .     S
V8     V14    10.0   .     S
V8     V48    10.0   .     S
V9     V37    10.0   1_455     S
V9     V35    10.0   .     S
V9     V33    10.0   .     S
V9     V18    10.0   1_554     S
V10     V38    10.0   1_455     S
V10     V36    10.0   .     S
V10     V34    10.0   .     S
V10     V17    10.0   .     S
V11     V5    10.0   1_565     S
V11     V39    10.0   1_455     S
V11     V33    10.0   1_565     S
V11     V35    10.0   .     S
V11     V1    10.0   1_565     S
V11     V20    10.0   1_554     S
V12     V6    10.0   1_565     S
V12     V40    10.0   1_455     S
V12     V34    10.0   1_565     S
V12     V36    10.0   .     S
V12     V2    10.0   1_565     S
V12     V19    10.0   .     S
V13     V3    10.0   1_655     S
V13     V33    10.0   .     S
V13     V39    10.0   .     S
V13     V37    10.0   .     S
V13     V22    10.0   1_554     S
V14     V4    10.0   1_655     S
V14     V34    10.0   .     S
V14     V40    10.0   .     S
V14     V38    10.0   .     S
V14     V21    10.0   .     S
V15     V1    10.0   1_665     S
V15     V35    10.0   .     S
V15     V37    10.0   1_565     S
V15     V39    10.0   .     S
V15     V5    10.0   1_565     S
V15     V24    10.0   1_554     S
V16     V2    10.0   1_665     S
V16     V36    10.0   .     S
V16     V38    10.0   1_565     S
V16     V40    10.0   .     S
V16     V6    10.0   1_565     S
V16     V23    10.0   .     S
V17     V26    10.0   .     S
V17     V47    10.0   .     S
V17     V41    10.0   .     S
V17     V30    10.0   1_455     S
V17     V28    10.0   .     S
V17     V43    10.0   .     S
V18     V25    10.0   1_556     S
V18     V48    10.0   .     S
V18     V42    10.0   .     S
V18     V29    10.0   1_456     S
V18     V27    10.0   1_556     S
V18     V44    10.0   .     S
V18     V9    10.0   1_556     S
V19     V28    10.0   .     S
V19     V45    10.0   1_565     S
V19     V43    10.0   .     S
V19     V32    10.0   1_455     S
V19     V26    10.0   1_565     S
V19     V41    10.0   1_565     S
V20     V27    10.0   1_556     S
V20     V46    10.0   1_565     S
V20     V44    10.0   .     S
V20     V31    10.0   1_456     S
V20     V25    10.0   1_566     S
V20     V42    10.0   1_565     S
V20     V11    10.0   1_556     S
V21     V30    10.0   .     S
V21     V43    10.0   1_655     S
V21     V45    10.0   .     S
V21     V26    10.0   .     S
V21     V32    10.0   .     S
V21     V47    10.0   .     S
V22     V29    10.0   1_556     S
V22     V44    10.0   1_655     S
V22     V46    10.0   .     S
V22     V25    10.0   1_556     S
V22     V31    10.0   1_556     S
V22     V48    10.0   .     S
V22     V13    10.0   1_556     S
V23     V32    10.0   .     S
V23     V41    10.0   1_665     S
V23     V47    10.0   .     S
V23     V28    10.0   .     S
V23     V30    10.0   1_565     S
V23     V45    10.0   1_565     S
V24     V31    10.0   1_556     S
V24     V42    10.0   1_665     S
V24     V48    10.0   .     S
V24     V27    10.0   1_556     S
V24     V29    10.0   1_566     S
V24     V46    10.0   1_565     S
V24     V15    10.0   1_556     S
V25     V18    10.0   1_554     S
V25     V22    10.0   1_554     S
V25     V20    10.0   1_544     S
V25     V34    10.0   1_554     S
V26     V19    10.0   1_545     S
V26     V33    10.0   .     S
V27     V20    10.0   1_554     S
V27     V5    10.0   1_565     S
V27     V24    10.0   1_554     S
V27     V18    10.0   1_554     S
V27     V36    10.0   1_554     S
V28     V6    10.0   1_565     S
V28     V35    10.0   .     S
V29     V22    10.0   1_554     S
V29     V3    10.0   1_655     S
V29     V1    10.0   1_655     S
V29     V18    10.0   1_654     S
V29     V24    10.0   1_544     S
V29     V38    10.0   1_554     S
V30     V4    10.0   1_655     S
V30     V2    10.0   1_655     S
V30     V17    10.0   1_655     S
V30     V23    10.0   1_545     S
V30     V37    10.0   .     S
V31     V24    10.0   1_554     S
V31     V1    10.0   1_665     S
V31     V3    10.0   1_655     S
V31     V20    10.0   1_654     S
V31     V22    10.0   1_554     S
V31     V40    10.0   1_554     S
V32     V2    10.0   1_665     S
V32     V4    10.0   1_655     S
V32     V19    10.0   1_655     S
V32     V39    10.0   .     S
V33     V47    10.0   .     S
V33     V41    10.0   .     S
V33     V11    10.0   1_545     S
V33     V45    10.0   .     S
V34     V48    10.0   .     S
V34     V42    10.0   .     S
V34     V12    10.0   1_545     S
V34     V46    10.0   .     S
V34     V25    10.0   1_556     S
V35     V45    10.0   1_565     S
V35     V43    10.0   .     S
V35     V47    10.0   .     S
V36     V46    10.0   1_565     S
V36     V44    10.0   .     S
V36     V48    10.0   .     S
V36     V27    10.0   1_556     S
V37     V43    10.0   1_655     S
V37     V45    10.0   .     S
V37     V9    10.0   1_655     S
V37     V15    10.0   1_545     S
V37     V41    10.0   1_655     S
V38     V44    10.0   1_655     S
V38     V46    10.0   .     S
V38     V10    10.0   1_655     S
V38     V16    10.0   1_545     S
V38     V42    10.0   1_655     S
V38     V29    10.0   1_556     S
V39     V41    10.0   1_665     S
V39     V47    10.0   .     S
V39     V11    10.0   1_655     S
V39     V43    10.0   1_655     S
V40     V42    10.0   1_665     S
V40     V48    10.0   .     S
V40     V12    10.0   1_655     S
V40     V44    10.0   1_655     S
V40     V31    10.0   1_556     S
V41     V39    10.0   1_445     S
V41     V23    10.0   1_445     S
V41     V19    10.0   1_545     S
V41     V37    10.0   1_455     S
V42     V40    10.0   1_445     S
V42     V24    10.0   1_445     S
V42     V20    10.0   1_545     S
V42     V38    10.0   1_455     S
V43     V37    10.0   1_455     S
V43     V21    10.0   1_455     S
V43     V39    10.0   1_455     S
V44     V38    10.0   1_455     S
V44     V22    10.0   1_455     S
V44     V40    10.0   1_455     S
V45     V35    10.0   1_545     S
V45     V19    10.0   1_545     S
V45     V23    10.0   1_545     S
V46     V36    10.0   1_545     S
V46     V20    10.0   1_545     S
V46     V24    10.0   1_545     S
