data_lcy
_audit_creation_date              2019-12-31
_audit_creation_method            'Pymatgen'
_symmetry_space_group_name_H-M    'P1'
_symmetry_Int_Tables_number       1
loop_
_symmetry_equiv_pos_as_xyz
  x,y,z
_cell_length_a                    32.6598
_cell_length_b                    32.6598
_cell_length_c                    32.6598
_cell_angle_alpha                 90.0
_cell_angle_beta                 90.0
_cell_angle_gamma                 90.0
loop_
_atom_site_label
_atom_site_type_symbol
_atom_site_fract_x
_atom_site_fract_y
_atom_site_fract_z
V1     V     0.3125   0.4375   0.0625
V2     V     0.3125   0.4375   0.5625
V3     V     0.3125   0.9375   0.0625
V4     V     0.3125   0.9375   0.5625
V5     V     0.8125   0.4375   0.0625
V6     V     0.8125   0.4375   0.5625
V7     V     0.8125   0.9375   0.0625
V8     V     0.8125   0.9375   0.5625
V9     V     0.4375   0.0625   0.3125
V10     V     0.4375   0.0625   0.8125
V11     V     0.4375   0.5625   0.3125
V12     V     0.4375   0.5625   0.8125
V13     V     0.9375   0.0625   0.3125
V14     V     0.9375   0.0625   0.8125
V15     V     0.9375   0.5625   0.3125
V16     V     0.9375   0.5625   0.8125
V17     V     0.1875   0.1875   0.1875
V18     V     0.1875   0.1875   0.6875
V19     V     0.1875   0.6875   0.1875
V20     V     0.1875   0.6875   0.6875
V21     V     0.6875   0.1875   0.1875
V22     V     0.6875   0.1875   0.6875
V23     V     0.6875   0.6875   0.1875
V24     V     0.6875   0.6875   0.6875
V25     V     0.0625   0.3125   0.4375
V26     V     0.0625   0.3125   0.9375
V27     V     0.0625   0.8125   0.4375
V28     V     0.0625   0.8125   0.9375
V29     V     0.5625   0.3125   0.4375
V30     V     0.5625   0.3125   0.9375
V31     V     0.5625   0.8125   0.4375
V32     V     0.5625   0.8125   0.9375
loop_
_geom_bond_atom_site_label_1
_geom_bond_atom_site_label_2
_geom_bond_distance
_geom_bond_site_symmetry_2
_ccdc_geom_bond_type
V1     V26    10.0   1_554     S
V1     V19    10.0   .     S
V1     V12    10.0   1_554     S
V1     V30    10.0   1_554     S
V1     V11    10.0   .     S
V1     V17    10.0   .     S
V2     V25    10.0   .     S
V2     V20    10.0   .     S
V2     V11    10.0   .     S
V2     V29    10.0   .     S
V2     V12    10.0   .     S
V2     V18    10.0   .     S
V3     V28    10.0   1_554     S
V3     V17    10.0   1_565     S
V3     V10    10.0   1_564     S
V3     V32    10.0   1_554     S
V3     V9    10.0   1_565     S
V3     V19    10.0   .     S
V4     V27    10.0   .     S
V4     V18    10.0   1_565     S
V4     V9    10.0   1_565     S
V4     V31    10.0   .     S
V4     V10    10.0   1_565     S
V4     V20    10.0   .     S
V5     V30    10.0   1_554     S
V5     V23    10.0   .     S
V5     V16    10.0   1_554     S
V5     V26    10.0   1_654     S
V5     V15    10.0   .     S
V5     V21    10.0   .     S
V6     V29    10.0   .     S
V6     V24    10.0   .     S
V6     V15    10.0   .     S
V6     V25    10.0   1_655     S
V6     V16    10.0   .     S
V6     V22    10.0   .     S
V7     V32    10.0   1_554     S
V7     V21    10.0   1_565     S
V7     V14    10.0   1_564     S
V7     V28    10.0   1_654     S
V7     V13    10.0   1_565     S
V7     V23    10.0   .     S
V8     V31    10.0   .     S
V8     V22    10.0   1_565     S
V8     V13    10.0   1_565     S
V8     V27    10.0   1_655     S
V8     V14    10.0   1_565     S
V8     V24    10.0   .     S
V9     V4    10.0   1_545     S
V9     V31    10.0   1_545     S
V9     V21    10.0   .     S
V9     V3    10.0   1_545     S
V9     V17    10.0   .     S
V9     V29    10.0   .     S
V10     V3    10.0   1_546     S
V10     V32    10.0   1_545     S
V10     V22    10.0   .     S
V10     V4    10.0   1_545     S
V10     V18    10.0   .     S
V10     V30    10.0   .     S
V11     V29    10.0   .     S
V11     V23    10.0   .     S
V11     V19    10.0   .     S
V11     V31    10.0   .     S
V12     V1    10.0   1_556     S
V12     V30    10.0   .     S
V12     V24    10.0   .     S
V12     V20    10.0   .     S
V12     V32    10.0   .     S
V13     V8    10.0   1_545     S
V13     V27    10.0   1_645     S
V13     V17    10.0   1_655     S
V13     V7    10.0   1_545     S
V13     V21    10.0   .     S
V13     V25    10.0   1_655     S
V14     V7    10.0   1_546     S
V14     V28    10.0   1_645     S
V14     V18    10.0   1_655     S
V14     V8    10.0   1_545     S
V14     V22    10.0   .     S
V14     V26    10.0   1_655     S
V15     V25    10.0   1_655     S
V15     V19    10.0   1_655     S
V15     V23    10.0   .     S
V15     V27    10.0   1_655     S
V16     V5    10.0   1_556     S
V16     V26    10.0   1_655     S
V16     V20    10.0   1_655     S
V16     V24    10.0   .     S
V16     V28    10.0   1_655     S
V17     V3    10.0   1_545     S
V17     V13    10.0   1_455     S
V17     V25    10.0   .     S
V17     V26    10.0   1_554     S
V18     V4    10.0   1_545     S
V18     V14    10.0   1_455     S
V18     V26    10.0   .     S
V18     V25    10.0   .     S
V19     V15    10.0   1_455     S
V19     V27    10.0   .     S
V19     V28    10.0   1_554     S
V20     V16    10.0   1_455     S
V20     V28    10.0   .     S
V20     V27    10.0   .     S
V21     V7    10.0   1_545     S
V21     V29    10.0   .     S
V21     V30    10.0   1_554     S
V22     V8    10.0   1_545     S
V22     V30    10.0   .     S
V22     V29    10.0   .     S
V23     V31    10.0   .     S
V23     V32    10.0   1_554     S
V24     V32    10.0   .     S
V24     V31    10.0   .     S
V25     V15    10.0   1_455     S
V25     V6    10.0   1_455     S
V25     V13    10.0   1_455     S
V26     V1    10.0   1_556     S
V26     V16    10.0   1_455     S
V26     V5    10.0   1_456     S
V26     V17    10.0   1_556     S
V26     V14    10.0   1_455     S
V27     V13    10.0   1_465     S
V27     V8    10.0   1_455     S
V27     V15    10.0   1_455     S
V28     V3    10.0   1_556     S
V28     V14    10.0   1_465     S
V28     V7    10.0   1_456     S
V28     V19    10.0   1_556     S
V28     V16    10.0   1_455     S
V30     V5    10.0   1_556     S
V30     V1    10.0   1_556     S
V30     V21    10.0   1_556     S
V31     V9    10.0   1_565     S
V32     V7    10.0   1_556     S
V32     V10    10.0   1_565     S
V32     V3    10.0   1_556     S
V32     V23    10.0   1_556     S
