data_nbo-x-d
_audit_creation_date              2019-12-31
_audit_creation_method            'Pymatgen'
_symmetry_space_group_name_H-M    'P1'
_symmetry_Int_Tables_number       1
loop_
_symmetry_equiv_pos_as_xyz
  x,y,z
_cell_length_a                    42.265
_cell_length_b                    42.265
_cell_length_c                    42.265
_cell_angle_alpha                 90.0
_cell_angle_beta                 90.0
_cell_angle_gamma                 90.0
loop_
_atom_site_label
_atom_site_type_symbol
_atom_site_fract_x
_atom_site_fract_y
_atom_site_fract_z
V1     V     0.25   0.25   0.25
V2     V     0.25   0.25   0.75
V3     V     0.25   0.75   0.25
V4     V     0.25   0.75   0.75
V5     V     0.75   0.25   0.25
V6     V     0.75   0.25   0.75
V7     V     0.75   0.75   0.25
V8     V     0.75   0.75   0.75
V9     V     0.0   0.0   0.0
V10     V     0.0   0.0   0.5
V11     V     0.0   0.5   0.0
V12     V     0.0   0.5   0.5
V13     V     0.5   0.0   0.0
V14     V     0.5   0.0   0.5
V15     V     0.5   0.5   0.0
V16     V     0.5   0.5   0.5
Er17     Er     0.375   0.125   0.125
Er18     Er     0.375   0.125   0.625
Er19     Er     0.375   0.625   0.125
Er20     Er     0.375   0.625   0.625
Er21     Er     0.875   0.125   0.125
Er22     Er     0.875   0.125   0.625
Er23     Er     0.875   0.625   0.125
Er24     Er     0.875   0.625   0.625
Er25     Er     0.125   0.375   0.125
Er26     Er     0.125   0.375   0.625
Er27     Er     0.125   0.875   0.125
Er28     Er     0.125   0.875   0.625
Er29     Er     0.625   0.375   0.125
Er30     Er     0.625   0.375   0.625
Er31     Er     0.625   0.875   0.125
Er32     Er     0.625   0.875   0.625
Er33     Er     0.125   0.125   0.375
Er34     Er     0.125   0.125   0.875
Er35     Er     0.125   0.625   0.375
Er36     Er     0.125   0.625   0.875
Er37     Er     0.625   0.125   0.375
Er38     Er     0.625   0.125   0.875
Er39     Er     0.625   0.625   0.375
Er40     Er     0.625   0.625   0.875
Er41     Er     0.125   0.125   0.125
Er42     Er     0.125   0.125   0.625
Er43     Er     0.125   0.625   0.125
Er44     Er     0.125   0.625   0.625
Er45     Er     0.625   0.125   0.125
Er46     Er     0.625   0.125   0.625
Er47     Er     0.625   0.625   0.125
Er48     Er     0.625   0.625   0.625
Er49     Er     0.375   0.375   0.125
Er50     Er     0.375   0.375   0.625
Er51     Er     0.375   0.875   0.125
Er52     Er     0.375   0.875   0.625
Er53     Er     0.875   0.375   0.125
Er54     Er     0.875   0.375   0.625
Er55     Er     0.875   0.875   0.125
Er56     Er     0.875   0.875   0.625
Er57     Er     0.125   0.375   0.375
Er58     Er     0.125   0.375   0.875
Er59     Er     0.125   0.875   0.375
Er60     Er     0.125   0.875   0.875
Er61     Er     0.625   0.375   0.375
Er62     Er     0.625   0.375   0.875
Er63     Er     0.625   0.875   0.375
Er64     Er     0.625   0.875   0.875
Er65     Er     0.375   0.125   0.375
Er66     Er     0.375   0.125   0.875
Er67     Er     0.375   0.625   0.375
Er68     Er     0.375   0.625   0.875
Er69     Er     0.875   0.125   0.375
Er70     Er     0.875   0.125   0.875
Er71     Er     0.875   0.625   0.375
Er72     Er     0.875   0.625   0.875
Er73     Er     0.375   0.375   0.375
Er74     Er     0.375   0.375   0.875
Er75     Er     0.375   0.875   0.375
Er76     Er     0.375   0.875   0.875
Er77     Er     0.875   0.375   0.375
Er78     Er     0.875   0.375   0.875
Er79     Er     0.875   0.875   0.375
Er80     Er     0.875   0.875   0.875
loop_
_geom_bond_atom_site_label_1
_geom_bond_atom_site_label_2
_geom_bond_distance
_geom_bond_site_symmetry_2
_ccdc_geom_bond_type
V1     Er73    9.151   .     S
V1     Er57    9.151   .     S
V1     Er65    9.151   .     S
V1     Er49    9.151   .     S
V1     Er33    9.151   .     S
V1     Er17    9.151   .     S
V1     Er25    9.151   .     S
V1     Er41    9.151   .     S
V2     Er74    9.151   .     S
V2     Er58    9.151   .     S
V2     Er66    9.151   .     S
V2     Er50    9.151   .     S
V2     Er34    9.151   .     S
V2     Er18    9.151   .     S
V2     Er26    9.151   .     S
V2     Er42    9.151   .     S
V3     Er75    9.151   .     S
V3     Er59    9.151   .     S
V3     Er67    9.151   .     S
V3     Er51    9.151   .     S
V3     Er35    9.151   .     S
V3     Er19    9.151   .     S
V3     Er27    9.151   .     S
V3     Er43    9.151   .     S
V4     Er76    9.151   .     S
V4     Er60    9.151   .     S
V4     Er68    9.151   .     S
V4     Er52    9.151   .     S
V4     Er36    9.151   .     S
V4     Er20    9.151   .     S
V4     Er28    9.151   .     S
V4     Er44    9.151   .     S
V5     Er77    9.151   .     S
V5     Er61    9.151   .     S
V5     Er69    9.151   .     S
V5     Er53    9.151   .     S
V5     Er37    9.151   .     S
V5     Er21    9.151   .     S
V5     Er29    9.151   .     S
V5     Er45    9.151   .     S
V6     Er78    9.151   .     S
V6     Er62    9.151   .     S
V6     Er70    9.151   .     S
V6     Er54    9.151   .     S
V6     Er38    9.151   .     S
V6     Er22    9.151   .     S
V6     Er30    9.151   .     S
V6     Er46    9.151   .     S
V7     Er79    9.151   .     S
V7     Er63    9.151   .     S
V7     Er71    9.151   .     S
V7     Er55    9.151   .     S
V7     Er39    9.151   .     S
V7     Er23    9.151   .     S
V7     Er31    9.151   .     S
V7     Er47    9.151   .     S
V8     Er80    9.151   .     S
V8     Er64    9.151   .     S
V8     Er72    9.151   .     S
V8     Er56    9.151   .     S
V8     Er40    9.151   .     S
V8     Er24    9.151   .     S
V8     Er32    9.151   .     S
V8     Er48    9.151   .     S
V9     Er55    9.151   1_445     S
V9     Er60    9.151   1_544     S
V9     Er70    9.151   1_454     S
V9     Er80    9.151   1_444     S
V9     Er21    9.151   1_455     S
V9     Er27    9.151   1_545     S
V9     Er34    9.151   1_554     S
V9     Er41    9.151   .     S
V10     Er56    9.151   1_445     S
V10     Er59    9.151   1_545     S
V10     Er69    9.151   1_455     S
V10     Er79    9.151   1_445     S
V10     Er22    9.151   1_455     S
V10     Er28    9.151   1_545     S
V10     Er33    9.151   .     S
V10     Er42    9.151   .     S
V11     Er53    9.151   1_455     S
V11     Er58    9.151   1_554     S
V11     Er72    9.151   1_454     S
V11     Er78    9.151   1_454     S
V11     Er23    9.151   1_455     S
V11     Er25    9.151   .     S
V11     Er36    9.151   1_554     S
V11     Er43    9.151   .     S
V12     Er54    9.151   1_455     S
V12     Er57    9.151   .     S
V12     Er71    9.151   1_455     S
V12     Er77    9.151   1_455     S
V12     Er24    9.151   1_455     S
V12     Er26    9.151   .     S
V12     Er35    9.151   .     S
V12     Er44    9.151   .     S
V13     Er51    9.151   1_545     S
V13     Er64    9.151   1_544     S
V13     Er66    9.151   1_554     S
V13     Er76    9.151   1_544     S
V13     Er17    9.151   .     S
V13     Er31    9.151   1_545     S
V13     Er38    9.151   1_554     S
V13     Er45    9.151   .     S
V14     Er52    9.151   1_545     S
V14     Er63    9.151   1_545     S
V14     Er65    9.151   .     S
V14     Er75    9.151   1_545     S
V14     Er18    9.151   .     S
V14     Er32    9.151   1_545     S
V14     Er37    9.151   .     S
V14     Er46    9.151   .     S
V15     Er49    9.151   .     S
V15     Er62    9.151   1_554     S
V15     Er68    9.151   1_554     S
V15     Er74    9.151   1_554     S
V15     Er19    9.151   .     S
V15     Er29    9.151   .     S
V15     Er40    9.151   1_554     S
V15     Er47    9.151   .     S
V16     Er50    9.151   .     S
V16     Er61    9.151   .     S
V16     Er67    9.151   .     S
V16     Er73    9.151   .     S
V16     Er20    9.151   .     S
V16     Er30    9.151   .     S
V16     Er39    9.151   .     S
V16     Er48    9.151   .     S
Er17     Er65    10.566   .     S
Er17     Er41    10.566   .     S
Er17     Er66    10.566   1_554     S
Er17     Er45    10.566   .     S
Er17     Er51    10.566   1_545     S
Er17     Er49    10.566   .     S
Er18     Er66    10.566   .     S
Er18     Er42    10.566   .     S
Er18     Er65    10.566   .     S
Er18     Er46    10.566   .     S
Er18     Er52    10.566   1_545     S
Er18     Er50    10.566   .     S
Er19     Er67    10.566   .     S
Er19     Er43    10.566   .     S
Er19     Er68    10.566   1_554     S
Er19     Er47    10.566   .     S
Er19     Er49    10.566   .     S
Er19     Er51    10.566   .     S
Er20     Er68    10.566   .     S
Er20     Er44    10.566   .     S
Er20     Er67    10.566   .     S
Er20     Er48    10.566   .     S
Er20     Er50    10.566   .     S
Er20     Er52    10.566   .     S
Er21     Er69    10.566   .     S
Er21     Er45    10.566   .     S
Er21     Er70    10.566   1_554     S
Er21     Er41    10.566   1_655     S
Er21     Er55    10.566   1_545     S
Er21     Er53    10.566   .     S
Er21     V9    9.151   1_655     S
Er22     Er70    10.566   .     S
Er22     Er46    10.566   .     S
Er22     Er69    10.566   .     S
Er22     Er42    10.566   1_655     S
Er22     Er56    10.566   1_545     S
Er22     Er54    10.566   .     S
Er22     V10    9.151   1_655     S
Er23     Er71    10.566   .     S
Er23     Er47    10.566   .     S
Er23     Er72    10.566   1_554     S
Er23     Er43    10.566   1_655     S
Er23     Er53    10.566   .     S
Er23     Er55    10.566   .     S
Er23     V11    9.151   1_655     S
Er24     Er72    10.566   .     S
Er24     Er48    10.566   .     S
Er24     Er71    10.566   .     S
Er24     Er44    10.566   1_655     S
Er24     Er54    10.566   .     S
Er24     Er56    10.566   .     S
Er24     V12    9.151   1_655     S
Er25     Er57    10.566   .     S
Er25     Er41    10.566   .     S
Er25     Er58    10.566   1_554     S
Er25     Er43    10.566   .     S
Er25     Er53    10.566   1_455     S
Er25     Er49    10.566   .     S
Er26     Er58    10.566   .     S
Er26     Er42    10.566   .     S
Er26     Er57    10.566   .     S
Er26     Er44    10.566   .     S
Er26     Er54    10.566   1_455     S
Er26     Er50    10.566   .     S
Er27     Er59    10.566   .     S
Er27     Er43    10.566   .     S
Er27     Er60    10.566   1_554     S
Er27     Er41    10.566   1_565     S
Er27     Er55    10.566   1_455     S
Er27     Er51    10.566   .     S
Er27     V9    9.151   1_565     S
Er28     Er60    10.566   .     S
Er28     Er44    10.566   .     S
Er28     Er59    10.566   .     S
Er28     Er42    10.566   1_565     S
Er28     Er56    10.566   1_455     S
Er28     Er52    10.566   .     S
Er28     V10    9.151   1_565     S
Er29     Er61    10.566   .     S
Er29     Er45    10.566   .     S
Er29     Er62    10.566   1_554     S
Er29     Er47    10.566   .     S
Er29     Er49    10.566   .     S
Er29     Er53    10.566   .     S
Er30     Er62    10.566   .     S
Er30     Er46    10.566   .     S
Er30     Er61    10.566   .     S
Er30     Er48    10.566   .     S
Er30     Er50    10.566   .     S
Er30     Er54    10.566   .     S
Er31     Er63    10.566   .     S
Er31     Er47    10.566   .     S
Er31     Er64    10.566   1_554     S
Er31     Er45    10.566   1_565     S
Er31     Er51    10.566   .     S
Er31     Er55    10.566   .     S
Er31     V13    9.151   1_565     S
Er32     Er64    10.566   .     S
Er32     Er48    10.566   .     S
Er32     Er63    10.566   .     S
Er32     Er46    10.566   1_565     S
Er32     Er52    10.566   .     S
Er32     Er56    10.566   .     S
Er32     V14    9.151   1_565     S
Er33     Er41    10.566   .     S
Er33     Er57    10.566   .     S
Er33     Er65    10.566   .     S
Er33     Er59    10.566   1_545     S
Er33     Er69    10.566   1_455     S
Er33     Er42    10.566   .     S
Er34     Er42    10.566   .     S
Er34     Er58    10.566   .     S
Er34     Er66    10.566   .     S
Er34     Er60    10.566   1_545     S
Er34     Er70    10.566   1_455     S
Er34     Er41    10.566   1_556     S
Er34     V9    9.151   1_556     S
Er35     Er43    10.566   .     S
Er35     Er59    10.566   .     S
Er35     Er67    10.566   .     S
Er35     Er57    10.566   .     S
Er35     Er71    10.566   1_455     S
Er35     Er44    10.566   .     S
Er36     Er44    10.566   .     S
Er36     Er60    10.566   .     S
Er36     Er68    10.566   .     S
Er36     Er58    10.566   .     S
Er36     Er72    10.566   1_455     S
Er36     Er43    10.566   1_556     S
Er36     V11    9.151   1_556     S
Er37     Er45    10.566   .     S
Er37     Er61    10.566   .     S
Er37     Er69    10.566   .     S
Er37     Er63    10.566   1_545     S
Er37     Er65    10.566   .     S
Er37     Er46    10.566   .     S
Er38     Er46    10.566   .     S
Er38     Er62    10.566   .     S
Er38     Er70    10.566   .     S
Er38     Er64    10.566   1_545     S
Er38     Er66    10.566   .     S
Er38     Er45    10.566   1_556     S
Er38     V13    9.151   1_556     S
Er39     Er47    10.566   .     S
Er39     Er63    10.566   .     S
Er39     Er71    10.566   .     S
Er39     Er61    10.566   .     S
Er39     Er67    10.566   .     S
Er39     Er48    10.566   .     S
Er40     Er48    10.566   .     S
Er40     Er64    10.566   .     S
Er40     Er72    10.566   .     S
Er40     Er62    10.566   .     S
Er40     Er68    10.566   .     S
Er40     Er47    10.566   1_556     S
Er40     V15    9.151   1_556     S
Er41     Er21    10.566   1_455     S
Er41     Er27    10.566   1_545     S
Er41     Er34    10.566   1_554     S
Er42     Er22    10.566   1_455     S
Er42     Er28    10.566   1_545     S
Er43     Er23    10.566   1_455     S
Er43     Er36    10.566   1_554     S
Er44     Er24    10.566   1_455     S
Er45     Er31    10.566   1_545     S
Er45     Er38    10.566   1_554     S
Er46     Er32    10.566   1_545     S
Er47     Er40    10.566   1_554     S
Er49     Er74    10.566   1_554     S
Er49     Er73    10.566   .     S
Er50     Er73    10.566   .     S
Er50     Er74    10.566   .     S
Er51     Er76    10.566   1_554     S
Er51     Er17    10.566   1_565     S
Er51     Er75    10.566   .     S
Er51     V13    9.151   1_565     S
Er52     Er75    10.566   .     S
Er52     Er18    10.566   1_565     S
Er52     Er76    10.566   .     S
Er52     V14    9.151   1_565     S
Er53     Er78    10.566   1_554     S
Er53     Er25    10.566   1_655     S
Er53     Er77    10.566   .     S
Er53     V11    9.151   1_655     S
Er54     Er77    10.566   .     S
Er54     Er26    10.566   1_655     S
Er54     Er78    10.566   .     S
Er54     V12    9.151   1_655     S
Er55     Er80    10.566   1_554     S
Er55     Er21    10.566   1_565     S
Er55     Er27    10.566   1_655     S
Er55     Er79    10.566   .     S
Er55     V9    9.151   1_665     S
Er56     Er79    10.566   .     S
Er56     Er22    10.566   1_565     S
Er56     Er28    10.566   1_655     S
Er56     Er80    10.566   .     S
Er56     V10    9.151   1_665     S
Er57     Er77    10.566   1_455     S
Er57     Er73    10.566   .     S
Er58     Er25    10.566   1_556     S
Er58     Er78    10.566   1_455     S
Er58     Er74    10.566   .     S
Er58     V11    9.151   1_556     S
Er59     Er33    10.566   1_565     S
Er59     Er79    10.566   1_455     S
Er59     Er75    10.566   .     S
Er59     V10    9.151   1_565     S
Er60     Er27    10.566   1_556     S
Er60     Er34    10.566   1_565     S
Er60     Er80    10.566   1_455     S
Er60     Er76    10.566   .     S
Er60     V9    9.151   1_566     S
Er61     Er73    10.566   .     S
Er61     Er77    10.566   .     S
Er62     Er29    10.566   1_556     S
Er62     Er74    10.566   .     S
Er62     Er78    10.566   .     S
Er62     V15    9.151   1_556     S
Er63     Er37    10.566   1_565     S
Er63     Er75    10.566   .     S
Er63     Er79    10.566   .     S
Er63     V14    9.151   1_565     S
Er64     Er31    10.566   1_556     S
Er64     Er38    10.566   1_565     S
Er64     Er76    10.566   .     S
Er64     Er80    10.566   .     S
Er64     V13    9.151   1_566     S
Er65     Er75    10.566   1_545     S
Er65     Er73    10.566   .     S
Er66     Er17    10.566   1_556     S
Er66     Er76    10.566   1_545     S
Er66     Er74    10.566   .     S
Er66     V13    9.151   1_556     S
Er67     Er73    10.566   .     S
Er67     Er75    10.566   .     S
Er68     Er19    10.566   1_556     S
Er68     Er74    10.566   .     S
Er68     Er76    10.566   .     S
Er68     V15    9.151   1_556     S
Er69     Er33    10.566   1_655     S
Er69     Er79    10.566   1_545     S
Er69     Er77    10.566   .     S
Er69     V10    9.151   1_655     S
Er70     Er21    10.566   1_556     S
Er70     Er34    10.566   1_655     S
Er70     Er80    10.566   1_545     S
Er70     Er78    10.566   .     S
Er70     V9    9.151   1_656     S
Er71     Er35    10.566   1_655     S
Er71     Er77    10.566   .     S
Er71     Er79    10.566   .     S
Er71     V12    9.151   1_655     S
Er72     Er23    10.566   1_556     S
Er72     Er36    10.566   1_655     S
Er72     Er78    10.566   .     S
Er72     Er80    10.566   .     S
Er72     V11    9.151   1_656     S
Er74     Er49    10.566   1_556     S
Er74     V15    9.151   1_556     S
Er75     Er65    10.566   1_565     S
Er75     V14    9.151   1_565     S
Er76     Er51    10.566   1_556     S
Er76     Er66    10.566   1_565     S
Er76     V13    9.151   1_566     S
Er77     Er57    10.566   1_655     S
Er77     V12    9.151   1_655     S
Er78     Er53    10.566   1_556     S
Er78     Er58    10.566   1_655     S
Er78     V11    9.151   1_656     S
Er79     Er59    10.566   1_655     S
Er79     Er69    10.566   1_565     S
Er79     V10    9.151   1_665     S
Er80     Er55    10.566   1_556     S
Er80     Er60    10.566   1_655     S
Er80     Er70    10.566   1_565     S
Er80     V9    9.151   1_666     S
