data_nbo
_audit_creation_date              2019-12-31
_audit_creation_method            'Pymatgen'
_symmetry_space_group_name_H-M    'P1'
_symmetry_Int_Tables_number       1
loop_
_symmetry_equiv_pos_as_xyz
  x,y,z
_cell_length_a                    40.0
_cell_length_b                    40.0
_cell_length_c                    40.0
_cell_angle_alpha                 90.0
_cell_angle_beta                 90.0
_cell_angle_gamma                 90.0
loop_
_atom_site_label
_atom_site_type_symbol
_atom_site_fract_x
_atom_site_fract_y
_atom_site_fract_z
V1     V     0.0   0.0   0.25
V2     V     0.0   0.0   0.75
V3     V     0.0   0.5   0.25
V4     V     0.0   0.5   0.75
V5     V     0.5   0.0   0.25
V6     V     0.5   0.0   0.75
V7     V     0.5   0.5   0.25
V8     V     0.5   0.5   0.75
V9     V     0.0   0.25   0.25
V10     V     0.0   0.25   0.75
V11     V     0.0   0.75   0.25
V12     V     0.0   0.75   0.75
V13     V     0.5   0.25   0.25
V14     V     0.5   0.25   0.75
V15     V     0.5   0.75   0.25
V16     V     0.5   0.75   0.75
V17     V     0.25   0.0   0.25
V18     V     0.25   0.0   0.75
V19     V     0.25   0.5   0.25
V20     V     0.25   0.5   0.75
V21     V     0.75   0.0   0.25
V22     V     0.75   0.0   0.75
V23     V     0.75   0.5   0.25
V24     V     0.75   0.5   0.75
V25     V     0.25   0.0   0.0
V26     V     0.25   0.0   0.5
V27     V     0.25   0.5   0.0
V28     V     0.25   0.5   0.5
V29     V     0.75   0.0   0.0
V30     V     0.75   0.0   0.5
V31     V     0.75   0.5   0.0
V32     V     0.75   0.5   0.5
V33     V     0.0   0.25   0.0
V34     V     0.0   0.25   0.5
V35     V     0.0   0.75   0.0
V36     V     0.0   0.75   0.5
V37     V     0.5   0.25   0.0
V38     V     0.5   0.25   0.5
V39     V     0.5   0.75   0.0
V40     V     0.5   0.75   0.5
V41     V     0.25   0.25   0.0
V42     V     0.25   0.25   0.5
V43     V     0.25   0.75   0.0
V44     V     0.25   0.75   0.5
V45     V     0.75   0.25   0.0
V46     V     0.75   0.25   0.5
V47     V     0.75   0.75   0.0
V48     V     0.75   0.75   0.5
loop_
_geom_bond_atom_site_label_1
_geom_bond_atom_site_label_2
_geom_bond_distance
_geom_bond_site_symmetry_2
_ccdc_geom_bond_type
V1     V9    10.0   .     S
V1     V21    10.0   1_455     S
V1     V11    10.0   1_545     S
V1     V17    10.0   .     S
V2     V10    10.0   .     S
V2     V22    10.0   1_455     S
V2     V12    10.0   1_545     S
V2     V18    10.0   .     S
V3     V11    10.0   .     S
V3     V23    10.0   1_455     S
V3     V9    10.0   .     S
V3     V19    10.0   .     S
V4     V12    10.0   .     S
V4     V24    10.0   1_455     S
V4     V10    10.0   .     S
V4     V20    10.0   .     S
V5     V13    10.0   .     S
V5     V17    10.0   .     S
V5     V15    10.0   1_545     S
V5     V21    10.0   .     S
V6     V14    10.0   .     S
V6     V18    10.0   .     S
V6     V16    10.0   1_545     S
V6     V22    10.0   .     S
V7     V15    10.0   .     S
V7     V19    10.0   .     S
V7     V13    10.0   .     S
V7     V23    10.0   .     S
V8     V16    10.0   .     S
V8     V20    10.0   .     S
V8     V14    10.0   .     S
V8     V24    10.0   .     S
V9     V33    10.0   .     S
V9     V34    10.0   .     S
V10     V34    10.0   .     S
V10     V33    10.0   1_556     S
V11     V1    10.0   1_565     S
V11     V35    10.0   .     S
V11     V36    10.0   .     S
V12     V2    10.0   1_565     S
V12     V36    10.0   .     S
V12     V35    10.0   1_556     S
V13     V37    10.0   .     S
V13     V38    10.0   .     S
V14     V38    10.0   .     S
V14     V37    10.0   1_556     S
V15     V5    10.0   1_565     S
V15     V39    10.0   .     S
V15     V40    10.0   .     S
V16     V6    10.0   1_565     S
V16     V40    10.0   .     S
V16     V39    10.0   1_556     S
V17     V25    10.0   .     S
V17     V26    10.0   .     S
V18     V26    10.0   .     S
V18     V25    10.0   1_556     S
V19     V27    10.0   .     S
V19     V28    10.0   .     S
V20     V28    10.0   .     S
V20     V27    10.0   1_556     S
V21     V1    10.0   1_655     S
V21     V29    10.0   .     S
V21     V30    10.0   .     S
V22     V2    10.0   1_655     S
V22     V30    10.0   .     S
V22     V29    10.0   1_556     S
V23     V3    10.0   1_655     S
V23     V31    10.0   .     S
V23     V32    10.0   .     S
V24     V4    10.0   1_655     S
V24     V32    10.0   .     S
V24     V31    10.0   1_556     S
V25     V18    10.0   1_554     S
V25     V41    10.0   .     S
V25     V43    10.0   1_545     S
V26     V42    10.0   .     S
V26     V44    10.0   1_545     S
V27     V20    10.0   1_554     S
V27     V43    10.0   .     S
V27     V41    10.0   .     S
V28     V44    10.0   .     S
V28     V42    10.0   .     S
V29     V22    10.0   1_554     S
V29     V45    10.0   .     S
V29     V47    10.0   1_545     S
V30     V46    10.0   .     S
V30     V48    10.0   1_545     S
V31     V24    10.0   1_554     S
V31     V47    10.0   .     S
V31     V45    10.0   .     S
V32     V48    10.0   .     S
V32     V46    10.0   .     S
V33     V10    10.0   1_554     S
V33     V41    10.0   .     S
V33     V45    10.0   1_455     S
V34     V42    10.0   .     S
V34     V46    10.0   1_455     S
V35     V12    10.0   1_554     S
V35     V43    10.0   .     S
V35     V47    10.0   1_455     S
V36     V44    10.0   .     S
V36     V48    10.0   1_455     S
V37     V14    10.0   1_554     S
V37     V45    10.0   .     S
V37     V41    10.0   .     S
V38     V46    10.0   .     S
V38     V42    10.0   .     S
V39     V16    10.0   1_554     S
V39     V47    10.0   .     S
V39     V43    10.0   .     S
V40     V48    10.0   .     S
V40     V44    10.0   .     S
V43     V25    10.0   1_565     S
V44     V26    10.0   1_565     S
V45     V33    10.0   1_655     S
V46     V34    10.0   1_655     S
V47     V35    10.0   1_655     S
V47     V29    10.0   1_565     S
V48     V36    10.0   1_655     S
V48     V30    10.0   1_565     S
