data_ncb
_audit_creation_date              2019-12-31
_audit_creation_method            'Pymatgen'
_symmetry_space_group_name_H-M    'P1'
_symmetry_Int_Tables_number       1
loop_
_symmetry_equiv_pos_as_xyz
  x,y,z
_cell_length_a                    37.7124
_cell_length_b                    37.7124
_cell_length_c                    37.7124
_cell_angle_alpha                 90.0
_cell_angle_beta                 90.0
_cell_angle_gamma                 90.0
loop_
_atom_site_label
_atom_site_type_symbol
_atom_site_fract_x
_atom_site_fract_y
_atom_site_fract_z
V1     V     0.0938   0.0938   0.0938
V2     V     0.0938   0.0938   0.5938
V3     V     0.0938   0.5938   0.0938
V4     V     0.0938   0.5938   0.5938
V5     V     0.5938   0.0938   0.0938
V6     V     0.5938   0.0938   0.5938
V7     V     0.5938   0.5938   0.0938
V8     V     0.5938   0.5938   0.5938
V9     V     0.1562   0.1562   0.3438
V10     V     0.1562   0.1562   0.8438
V11     V     0.1562   0.6562   0.3438
V12     V     0.1562   0.6562   0.8438
V13     V     0.6562   0.1562   0.3438
V14     V     0.6562   0.1562   0.8438
V15     V     0.6562   0.6562   0.3438
V16     V     0.6562   0.6562   0.8438
V17     V     0.3438   0.1562   0.1562
V18     V     0.3438   0.1562   0.6562
V19     V     0.3438   0.6562   0.1562
V20     V     0.3438   0.6562   0.6562
V21     V     0.8438   0.1562   0.1562
V22     V     0.8438   0.1562   0.6562
V23     V     0.8438   0.6562   0.1562
V24     V     0.8438   0.6562   0.6562
V25     V     0.4062   0.0938   0.4062
V26     V     0.4062   0.0938   0.9062
V27     V     0.4062   0.5938   0.4062
V28     V     0.4062   0.5938   0.9062
V29     V     0.9062   0.0938   0.4062
V30     V     0.9062   0.0938   0.9062
V31     V     0.9062   0.5938   0.4062
V32     V     0.9062   0.5938   0.9062
V33     V     0.0938   0.4062   0.4062
V34     V     0.0938   0.4062   0.9062
V35     V     0.0938   0.9062   0.4062
V36     V     0.0938   0.9062   0.9062
V37     V     0.5938   0.4062   0.4062
V38     V     0.5938   0.4062   0.9062
V39     V     0.5938   0.9062   0.4062
V40     V     0.5938   0.9062   0.9062
V41     V     0.1562   0.3438   0.1562
V42     V     0.1562   0.3438   0.6562
V43     V     0.1562   0.8438   0.1562
V44     V     0.1562   0.8438   0.6562
V45     V     0.6562   0.3438   0.1562
V46     V     0.6562   0.3438   0.6562
V47     V     0.6562   0.8438   0.1562
V48     V     0.6562   0.8438   0.6562
V49     V     0.4062   0.4062   0.0938
V50     V     0.4062   0.4062   0.5938
V51     V     0.4062   0.9062   0.0938
V52     V     0.4062   0.9062   0.5938
V53     V     0.9062   0.4062   0.0938
V54     V     0.9062   0.4062   0.5938
V55     V     0.9062   0.9062   0.0938
V56     V     0.9062   0.9062   0.5938
V57     V     0.3438   0.3438   0.3438
V58     V     0.3438   0.3438   0.8438
V59     V     0.3438   0.8438   0.3438
V60     V     0.3438   0.8438   0.8438
V61     V     0.8438   0.3438   0.3438
V62     V     0.8438   0.3438   0.8438
V63     V     0.8438   0.8438   0.3438
V64     V     0.8438   0.8438   0.8438
loop_
_geom_bond_atom_site_label_1
_geom_bond_atom_site_label_2
_geom_bond_distance
_geom_bond_site_symmetry_2
_ccdc_geom_bond_type
V1     V10    10.0   1_554     S
V1     V21    10.0   1_455     S
V1     V43    10.0   1_545     S
V1     V9    10.0   .     S
V1     V41    10.0   .     S
V1     V17    10.0   .     S
V1     V36    10.0   1_544     S
V1     V30    10.0   1_454     S
V1     V55    10.0   1_445     S
V2     V9    10.0   .     S
V2     V22    10.0   1_455     S
V2     V44    10.0   1_545     S
V2     V10    10.0   .     S
V2     V42    10.0   .     S
V2     V18    10.0   .     S
V2     V35    10.0   1_545     S
V2     V29    10.0   1_455     S
V2     V56    10.0   1_445     S
V3     V12    10.0   1_554     S
V3     V23    10.0   1_455     S
V3     V41    10.0   .     S
V3     V11    10.0   .     S
V3     V43    10.0   .     S
V3     V19    10.0   .     S
V3     V34    10.0   1_554     S
V3     V32    10.0   1_454     S
V3     V53    10.0   1_455     S
V4     V11    10.0   .     S
V4     V24    10.0   1_455     S
V4     V42    10.0   .     S
V4     V12    10.0   .     S
V4     V44    10.0   .     S
V4     V20    10.0   .     S
V4     V33    10.0   .     S
V4     V31    10.0   1_455     S
V4     V54    10.0   1_455     S
V5     V14    10.0   1_554     S
V5     V17    10.0   .     S
V5     V47    10.0   1_545     S
V5     V13    10.0   .     S
V5     V45    10.0   .     S
V5     V21    10.0   .     S
V5     V40    10.0   1_544     S
V5     V26    10.0   1_554     S
V5     V51    10.0   1_545     S
V6     V13    10.0   .     S
V6     V18    10.0   .     S
V6     V48    10.0   1_545     S
V6     V14    10.0   .     S
V6     V46    10.0   .     S
V6     V22    10.0   .     S
V6     V39    10.0   1_545     S
V6     V25    10.0   .     S
V6     V52    10.0   1_545     S
V7     V16    10.0   1_554     S
V7     V19    10.0   .     S
V7     V45    10.0   .     S
V7     V15    10.0   .     S
V7     V47    10.0   .     S
V7     V23    10.0   .     S
V7     V38    10.0   1_554     S
V7     V28    10.0   1_554     S
V7     V49    10.0   .     S
V8     V15    10.0   .     S
V8     V20    10.0   .     S
V8     V46    10.0   .     S
V8     V16    10.0   .     S
V8     V48    10.0   .     S
V8     V24    10.0   .     S
V8     V37    10.0   .     S
V8     V27    10.0   .     S
V8     V50    10.0   .     S
V9     V35    10.0   1_545     S
V9     V29    10.0   1_455     S
V9     V25    10.0   .     S
V9     V33    10.0   .     S
V9     V17    10.0   .     S
V9     V41    10.0   .     S
V9     V57    10.0   .     S
V10     V1    10.0   1_556     S
V10     V36    10.0   1_545     S
V10     V30    10.0   1_455     S
V10     V26    10.0   .     S
V10     V34    10.0   .     S
V10     V18    10.0   .     S
V10     V42    10.0   .     S
V10     V58    10.0   .     S
V11     V33    10.0   .     S
V11     V31    10.0   1_455     S
V11     V27    10.0   .     S
V11     V35    10.0   .     S
V11     V19    10.0   .     S
V11     V43    10.0   .     S
V11     V59    10.0   .     S
V12     V3    10.0   1_556     S
V12     V34    10.0   .     S
V12     V32    10.0   1_455     S
V12     V28    10.0   .     S
V12     V36    10.0   .     S
V12     V20    10.0   .     S
V12     V44    10.0   .     S
V12     V60    10.0   .     S
V13     V39    10.0   1_545     S
V13     V25    10.0   .     S
V13     V29    10.0   .     S
V13     V37    10.0   .     S
V13     V21    10.0   .     S
V13     V45    10.0   .     S
V13     V61    10.0   .     S
V14     V5    10.0   1_556     S
V14     V40    10.0   1_545     S
V14     V26    10.0   .     S
V14     V30    10.0   .     S
V14     V38    10.0   .     S
V14     V22    10.0   .     S
V14     V46    10.0   .     S
V14     V62    10.0   .     S
V15     V37    10.0   .     S
V15     V27    10.0   .     S
V15     V31    10.0   .     S
V15     V39    10.0   .     S
V15     V23    10.0   .     S
V15     V47    10.0   .     S
V15     V63    10.0   .     S
V16     V7    10.0   1_556     S
V16     V38    10.0   .     S
V16     V28    10.0   .     S
V16     V32    10.0   .     S
V16     V40    10.0   .     S
V16     V24    10.0   .     S
V16     V48    10.0   .     S
V16     V64    10.0   .     S
V17     V26    10.0   1_554     S
V17     V51    10.0   1_545     S
V17     V25    10.0   .     S
V17     V49    10.0   .     S
V17     V57    10.0   .     S
V17     V41    10.0   .     S
V18     V25    10.0   .     S
V18     V52    10.0   1_545     S
V18     V26    10.0   .     S
V18     V50    10.0   .     S
V18     V58    10.0   .     S
V18     V42    10.0   .     S
V19     V28    10.0   1_554     S
V19     V49    10.0   .     S
V19     V27    10.0   .     S
V19     V51    10.0   .     S
V19     V59    10.0   .     S
V19     V43    10.0   .     S
V20     V27    10.0   .     S
V20     V50    10.0   .     S
V20     V28    10.0   .     S
V20     V52    10.0   .     S
V20     V60    10.0   .     S
V20     V44    10.0   .     S
V21     V1    10.0   1_655     S
V21     V30    10.0   1_554     S
V21     V55    10.0   1_545     S
V21     V29    10.0   .     S
V21     V53    10.0   .     S
V21     V61    10.0   .     S
V21     V45    10.0   .     S
V22     V2    10.0   1_655     S
V22     V29    10.0   .     S
V22     V56    10.0   1_545     S
V22     V30    10.0   .     S
V22     V54    10.0   .     S
V22     V62    10.0   .     S
V22     V46    10.0   .     S
V23     V3    10.0   1_655     S
V23     V32    10.0   1_554     S
V23     V53    10.0   .     S
V23     V31    10.0   .     S
V23     V55    10.0   .     S
V23     V63    10.0   .     S
V23     V47    10.0   .     S
V24     V4    10.0   1_655     S
V24     V31    10.0   .     S
V24     V54    10.0   .     S
V24     V32    10.0   .     S
V24     V56    10.0   .     S
V24     V64    10.0   .     S
V24     V48    10.0   .     S
V25     V59    10.0   1_545     S
V25     V57    10.0   .     S
V25     V52    10.0   1_545     S
V25     V39    10.0   1_545     S
V26     V17    10.0   1_556     S
V26     V60    10.0   1_545     S
V26     V58    10.0   .     S
V26     V51    10.0   1_546     S
V26     V5    10.0   1_556     S
V26     V40    10.0   1_545     S
V27     V57    10.0   .     S
V27     V59    10.0   .     S
V27     V50    10.0   .     S
V27     V37    10.0   .     S
V28     V19    10.0   1_556     S
V28     V58    10.0   .     S
V28     V60    10.0   .     S
V28     V49    10.0   1_556     S
V28     V7    10.0   1_556     S
V28     V38    10.0   .     S
V29     V63    10.0   1_545     S
V29     V9    10.0   1_655     S
V29     V61    10.0   .     S
V29     V56    10.0   1_545     S
V29     V2    10.0   1_655     S
V29     V35    10.0   1_645     S
V30     V21    10.0   1_556     S
V30     V64    10.0   1_545     S
V30     V10    10.0   1_655     S
V30     V62    10.0   .     S
V30     V55    10.0   1_546     S
V30     V1    10.0   1_656     S
V30     V36    10.0   1_645     S
V31     V61    10.0   .     S
V31     V11    10.0   1_655     S
V31     V63    10.0   .     S
V31     V54    10.0   .     S
V31     V4    10.0   1_655     S
V31     V33    10.0   1_655     S
V32     V23    10.0   1_556     S
V32     V62    10.0   .     S
V32     V12    10.0   1_655     S
V32     V64    10.0   .     S
V32     V53    10.0   1_556     S
V32     V3    10.0   1_656     S
V32     V34    10.0   1_655     S
V33     V42    10.0   .     S
V33     V61    10.0   1_455     S
V33     V41    10.0   .     S
V33     V57    10.0   .     S
V33     V54    10.0   1_455     S
V33     V31    10.0   1_455     S
V34     V41    10.0   1_556     S
V34     V62    10.0   1_455     S
V34     V42    10.0   .     S
V34     V58    10.0   .     S
V34     V3    10.0   1_556     S
V34     V53    10.0   1_456     S
V34     V32    10.0   1_455     S
V35     V9    10.0   1_565     S
V35     V44    10.0   .     S
V35     V63    10.0   1_455     S
V35     V43    10.0   .     S
V35     V59    10.0   .     S
V35     V2    10.0   1_565     S
V35     V56    10.0   1_455     S
V35     V29    10.0   1_465     S
V36     V10    10.0   1_565     S
V36     V43    10.0   1_556     S
V36     V64    10.0   1_455     S
V36     V44    10.0   .     S
V36     V60    10.0   .     S
V36     V1    10.0   1_566     S
V36     V55    10.0   1_456     S
V36     V30    10.0   1_465     S
V37     V46    10.0   .     S
V37     V57    10.0   .     S
V37     V45    10.0   .     S
V37     V61    10.0   .     S
V37     V50    10.0   .     S
V38     V45    10.0   1_556     S
V38     V58    10.0   .     S
V38     V46    10.0   .     S
V38     V62    10.0   .     S
V38     V7    10.0   1_556     S
V38     V49    10.0   1_556     S
V39     V13    10.0   1_565     S
V39     V48    10.0   .     S
V39     V59    10.0   .     S
V39     V47    10.0   .     S
V39     V63    10.0   .     S
V39     V6    10.0   1_565     S
V39     V52    10.0   .     S
V39     V25    10.0   1_565     S
V40     V14    10.0   1_565     S
V40     V47    10.0   1_556     S
V40     V60    10.0   .     S
V40     V48    10.0   .     S
V40     V64    10.0   .     S
V40     V5    10.0   1_566     S
V40     V51    10.0   1_556     S
V40     V26    10.0   1_565     S
V41     V34    10.0   1_554     S
V41     V53    10.0   1_455     S
V41     V49    10.0   .     S
V41     V57    10.0   .     S
V42     V54    10.0   1_455     S
V42     V50    10.0   .     S
V42     V58    10.0   .     S
V43     V36    10.0   1_554     S
V43     V55    10.0   1_455     S
V43     V1    10.0   1_565     S
V43     V51    10.0   .     S
V43     V59    10.0   .     S
V44     V56    10.0   1_455     S
V44     V2    10.0   1_565     S
V44     V52    10.0   .     S
V44     V60    10.0   .     S
V45     V38    10.0   1_554     S
V45     V49    10.0   .     S
V45     V53    10.0   .     S
V45     V61    10.0   .     S
V46     V50    10.0   .     S
V46     V54    10.0   .     S
V46     V62    10.0   .     S
V47     V40    10.0   1_554     S
V47     V51    10.0   .     S
V47     V5    10.0   1_565     S
V47     V55    10.0   .     S
V47     V63    10.0   .     S
V48     V52    10.0   .     S
V48     V6    10.0   1_565     S
V48     V56    10.0   .     S
V48     V64    10.0   .     S
V49     V58    10.0   1_554     S
V49     V57    10.0   .     S
V49     V38    10.0   1_554     S
V49     V28    10.0   1_554     S
V50     V57    10.0   .     S
V50     V58    10.0   .     S
V51     V60    10.0   1_554     S
V51     V17    10.0   1_565     S
V51     V59    10.0   .     S
V51     V40    10.0   1_554     S
V51     V26    10.0   1_564     S
V51     V5    10.0   1_565     S
V52     V59    10.0   .     S
V52     V18    10.0   1_565     S
V52     V60    10.0   .     S
V52     V25    10.0   1_565     S
V52     V6    10.0   1_565     S
V53     V41    10.0   1_655     S
V53     V62    10.0   1_554     S
V53     V61    10.0   .     S
V53     V34    10.0   1_654     S
V53     V32    10.0   1_554     S
V53     V3    10.0   1_655     S
V54     V42    10.0   1_655     S
V54     V61    10.0   .     S
V54     V62    10.0   .     S
V54     V33    10.0   1_655     S
V54     V4    10.0   1_655     S
V55     V43    10.0   1_655     S
V55     V64    10.0   1_554     S
V55     V21    10.0   1_565     S
V55     V63    10.0   .     S
V55     V36    10.0   1_654     S
V55     V30    10.0   1_564     S
V55     V1    10.0   1_665     S
V56     V44    10.0   1_655     S
V56     V63    10.0   .     S
V56     V22    10.0   1_565     S
V56     V64    10.0   .     S
V56     V35    10.0   1_655     S
V56     V29    10.0   1_565     S
V56     V2    10.0   1_665     S
V58     V49    10.0   1_556     S
V59     V25    10.0   1_565     S
V60     V51    10.0   1_556     S
V60     V26    10.0   1_565     S
V61     V33    10.0   1_655     S
V62     V53    10.0   1_556     S
V62     V34    10.0   1_655     S
V63     V29    10.0   1_565     S
V63     V35    10.0   1_655     S
V64     V55    10.0   1_556     S
V64     V30    10.0   1_565     S
V64     V36    10.0   1_655     S
