data_pto-d
_audit_creation_date              2019-12-31
_audit_creation_method            'Pymatgen'
_symmetry_space_group_name_H-M    'P1'
_symmetry_Int_Tables_number       1
loop_
_symmetry_equiv_pos_as_xyz
  x,y,z
_cell_length_a                    40.0
_cell_length_b                    40.0
_cell_length_c                    40.0
_cell_angle_alpha                 90.0
_cell_angle_beta                 90.0
_cell_angle_gamma                 90.0
loop_
_atom_site_label
_atom_site_type_symbol
_atom_site_fract_x
_atom_site_fract_y
_atom_site_fract_z
V1     V     0.0   0.0   0.0
V2     V     0.0   0.0   0.5
V3     V     0.0   0.5   0.0
V4     V     0.0   0.5   0.5
V5     V     0.5   0.0   0.0
V6     V     0.5   0.0   0.5
V7     V     0.5   0.5   0.0
V8     V     0.5   0.5   0.5
Er9     Er     0.0   0.0   0.25
Er10     Er     0.0   0.0   0.75
Er11     Er     0.0   0.5   0.25
Er12     Er     0.0   0.5   0.75
Er13     Er     0.5   0.0   0.25
Er14     Er     0.5   0.0   0.75
Er15     Er     0.5   0.5   0.25
Er16     Er     0.5   0.5   0.75
Er17     Er     0.25   0.0   0.0
Er18     Er     0.25   0.0   0.5
Er19     Er     0.25   0.5   0.0
Er20     Er     0.25   0.5   0.5
Er21     Er     0.75   0.0   0.0
Er22     Er     0.75   0.0   0.5
Er23     Er     0.75   0.5   0.0
Er24     Er     0.75   0.5   0.5
Er25     Er     0.0   0.25   0.0
Er26     Er     0.0   0.25   0.5
Er27     Er     0.0   0.75   0.0
Er28     Er     0.0   0.75   0.5
Er29     Er     0.5   0.25   0.0
Er30     Er     0.5   0.25   0.5
Er31     Er     0.5   0.75   0.0
Er32     Er     0.5   0.75   0.5
Er33     Er     0.0   0.25   0.25
Er34     Er     0.0   0.25   0.75
Er35     Er     0.0   0.75   0.25
Er36     Er     0.0   0.75   0.75
Er37     Er     0.5   0.25   0.25
Er38     Er     0.5   0.25   0.75
Er39     Er     0.5   0.75   0.25
Er40     Er     0.5   0.75   0.75
V41     V     0.25   0.25   0.25
V42     V     0.25   0.25   0.75
V43     V     0.25   0.75   0.25
V44     V     0.25   0.75   0.75
V45     V     0.75   0.25   0.25
V46     V     0.75   0.25   0.75
V47     V     0.75   0.75   0.25
V48     V     0.75   0.75   0.75
Er49     Er     0.25   0.25   0.0
Er50     Er     0.25   0.25   0.5
Er51     Er     0.25   0.75   0.0
Er52     Er     0.25   0.75   0.5
Er53     Er     0.75   0.25   0.0
Er54     Er     0.75   0.25   0.5
Er55     Er     0.75   0.75   0.0
Er56     Er     0.75   0.75   0.5
Er57     Er     0.25   0.0   0.25
Er58     Er     0.25   0.0   0.75
Er59     Er     0.25   0.5   0.25
Er60     Er     0.25   0.5   0.75
Er61     Er     0.75   0.0   0.25
Er62     Er     0.75   0.0   0.75
Er63     Er     0.75   0.5   0.25
Er64     Er     0.75   0.5   0.75
loop_
_geom_bond_atom_site_label_1
_geom_bond_atom_site_label_2
_geom_bond_distance
_geom_bond_site_symmetry_2
_ccdc_geom_bond_type
V1     Er9    10.0   .     S
V1     Er10    10.0   1_554     S
V1     Er17    10.0   .     S
V1     Er21    10.0   1_455     S
V1     Er25    10.0   .     S
V1     Er27    10.0   1_545     S
V2     Er10    10.0   .     S
V2     Er9    10.0   .     S
V2     Er18    10.0   .     S
V2     Er22    10.0   1_455     S
V2     Er26    10.0   .     S
V2     Er28    10.0   1_545     S
V3     Er11    10.0   .     S
V3     Er12    10.0   1_554     S
V3     Er19    10.0   .     S
V3     Er23    10.0   1_455     S
V3     Er27    10.0   .     S
V3     Er25    10.0   .     S
V4     Er12    10.0   .     S
V4     Er11    10.0   .     S
V4     Er20    10.0   .     S
V4     Er24    10.0   1_455     S
V4     Er28    10.0   .     S
V4     Er26    10.0   .     S
V5     Er13    10.0   .     S
V5     Er14    10.0   1_554     S
V5     Er21    10.0   .     S
V5     Er17    10.0   .     S
V5     Er29    10.0   .     S
V5     Er31    10.0   1_545     S
V6     Er14    10.0   .     S
V6     Er13    10.0   .     S
V6     Er22    10.0   .     S
V6     Er18    10.0   .     S
V6     Er30    10.0   .     S
V6     Er32    10.0   1_545     S
V7     Er15    10.0   .     S
V7     Er16    10.0   1_554     S
V7     Er23    10.0   .     S
V7     Er19    10.0   .     S
V7     Er31    10.0   .     S
V7     Er29    10.0   .     S
V8     Er16    10.0   .     S
V8     Er15    10.0   .     S
V8     Er24    10.0   .     S
V8     Er20    10.0   .     S
V8     Er32    10.0   .     S
V8     Er30    10.0   .     S
Er9     Er33    10.0   .     S
Er9     Er35    10.0   1_545     S
Er10     V1    10.0   1_556     S
Er10     Er34    10.0   .     S
Er10     Er36    10.0   1_545     S
Er11     Er35    10.0   .     S
Er11     Er33    10.0   .     S
Er12     V3    10.0   1_556     S
Er12     Er36    10.0   .     S
Er12     Er34    10.0   .     S
Er13     Er37    10.0   .     S
Er13     Er39    10.0   1_545     S
Er14     V5    10.0   1_556     S
Er14     Er38    10.0   .     S
Er14     Er40    10.0   1_545     S
Er15     Er39    10.0   .     S
Er15     Er37    10.0   .     S
Er16     V7    10.0   1_556     S
Er16     Er40    10.0   .     S
Er16     Er38    10.0   .     S
Er17     Er57    10.0   .     S
Er17     Er58    10.0   1_554     S
Er18     Er58    10.0   .     S
Er18     Er57    10.0   .     S
Er19     Er59    10.0   .     S
Er19     Er60    10.0   1_554     S
Er20     Er60    10.0   .     S
Er20     Er59    10.0   .     S
Er21     V1    10.0   1_655     S
Er21     Er61    10.0   .     S
Er21     Er62    10.0   1_554     S
Er22     V2    10.0   1_655     S
Er22     Er62    10.0   .     S
Er22     Er61    10.0   .     S
Er23     V3    10.0   1_655     S
Er23     Er63    10.0   .     S
Er23     Er64    10.0   1_554     S
Er24     V4    10.0   1_655     S
Er24     Er64    10.0   .     S
Er24     Er63    10.0   .     S
Er25     Er49    10.0   .     S
Er25     Er53    10.0   1_455     S
Er26     Er50    10.0   .     S
Er26     Er54    10.0   1_455     S
Er27     V1    10.0   1_565     S
Er27     Er51    10.0   .     S
Er27     Er55    10.0   1_455     S
Er28     V2    10.0   1_565     S
Er28     Er52    10.0   .     S
Er28     Er56    10.0   1_455     S
Er29     Er53    10.0   .     S
Er29     Er49    10.0   .     S
Er30     Er54    10.0   .     S
Er30     Er50    10.0   .     S
Er31     V5    10.0   1_565     S
Er31     Er55    10.0   .     S
Er31     Er51    10.0   .     S
Er32     V6    10.0   1_565     S
Er32     Er56    10.0   .     S
Er32     Er52    10.0   .     S
Er33     V45    10.0   1_455     S
Er33     V41    10.0   .     S
Er34     V46    10.0   1_455     S
Er34     V42    10.0   .     S
Er35     V47    10.0   1_455     S
Er35     V43    10.0   .     S
Er35     Er9    10.0   1_565     S
Er36     V48    10.0   1_455     S
Er36     V44    10.0   .     S
Er36     Er10    10.0   1_565     S
Er37     V41    10.0   .     S
Er37     V45    10.0   .     S
Er38     V42    10.0   .     S
Er38     V46    10.0   .     S
Er39     V43    10.0   .     S
Er39     V47    10.0   .     S
Er39     Er13    10.0   1_565     S
Er40     V44    10.0   .     S
Er40     V48    10.0   .     S
Er40     Er14    10.0   1_565     S
V41     Er50    10.0   .     S
V41     Er49    10.0   .     S
V41     Er59    10.0   .     S
V41     Er57    10.0   .     S
V42     Er49    10.0   1_556     S
V42     Er50    10.0   .     S
V42     Er60    10.0   .     S
V42     Er58    10.0   .     S
V43     Er52    10.0   .     S
V43     Er51    10.0   .     S
V43     Er57    10.0   1_565     S
V43     Er59    10.0   .     S
V44     Er51    10.0   1_556     S
V44     Er52    10.0   .     S
V44     Er58    10.0   1_565     S
V44     Er60    10.0   .     S
V45     Er33    10.0   1_655     S
V45     Er54    10.0   .     S
V45     Er53    10.0   .     S
V45     Er63    10.0   .     S
V45     Er61    10.0   .     S
V46     Er34    10.0   1_655     S
V46     Er53    10.0   1_556     S
V46     Er54    10.0   .     S
V46     Er64    10.0   .     S
V46     Er62    10.0   .     S
V47     Er35    10.0   1_655     S
V47     Er56    10.0   .     S
V47     Er55    10.0   .     S
V47     Er61    10.0   1_565     S
V47     Er63    10.0   .     S
V48     Er36    10.0   1_655     S
V48     Er55    10.0   1_556     S
V48     Er56    10.0   .     S
V48     Er62    10.0   1_565     S
V48     Er64    10.0   .     S
Er49     V42    10.0   1_554     S
Er51     V44    10.0   1_554     S
Er53     V46    10.0   1_554     S
Er53     Er25    10.0   1_655     S
Er54     Er26    10.0   1_655     S
Er55     V48    10.0   1_554     S
Er55     Er27    10.0   1_655     S
Er56     Er28    10.0   1_655     S
Er57     V43    10.0   1_545     S
Er58     V44    10.0   1_545     S
Er58     Er17    10.0   1_556     S
Er60     Er19    10.0   1_556     S
Er61     V47    10.0   1_545     S
Er62     V48    10.0   1_545     S
Er62     Er21    10.0   1_556     S
Er64     Er23    10.0   1_556     S
