data_pts
_audit_creation_date              2019-12-31
_audit_creation_method            'Pymatgen'
_symmetry_space_group_name_H-M    'P1'
_symmetry_Int_Tables_number       1
loop_
_symmetry_equiv_pos_as_xyz
  x,y,z
_cell_length_a                    32.6598
_cell_length_b                    32.6598
_cell_length_c                    23.094
_cell_angle_alpha                 90.0
_cell_angle_beta                 90.0
_cell_angle_gamma                 90.0
loop_
_atom_site_label
_atom_site_type_symbol
_atom_site_fract_x
_atom_site_fract_y
_atom_site_fract_z
V1     V     0.0   0.25   0.5
V2     V     0.0   0.75   0.5
V3     V     0.5   0.25   0.5
V4     V     0.5   0.75   0.5
Er5     Er     0.0   0.0   0.25
Er6     Er     0.0   0.5   0.25
Er7     Er     0.5   0.0   0.25
Er8     Er     0.5   0.5   0.25
Er9     Er     0.0   0.0   0.75
Er10     Er     0.0   0.5   0.75
Er11     Er     0.5   0.0   0.75
Er12     Er     0.5   0.5   0.75
V13     V     0.25   0.0   0.0
V14     V     0.25   0.5   0.0
V15     V     0.75   0.0   0.0
V16     V     0.75   0.5   0.0
loop_
_geom_bond_atom_site_label_1
_geom_bond_atom_site_label_2
_geom_bond_distance
_geom_bond_site_symmetry_2
_ccdc_geom_bond_type
V1     Er9    10.0   .     S
V1     Er5    10.0   .     S
V1     Er6    10.0   .     S
V1     Er10    10.0   .     S
V2     Er10    10.0   .     S
V2     Er6    10.0   .     S
V2     Er5    10.0   1_565     S
V2     Er9    10.0   1_565     S
V3     Er11    10.0   .     S
V3     Er7    10.0   .     S
V3     Er8    10.0   .     S
V3     Er12    10.0   .     S
V4     Er12    10.0   .     S
V4     Er8    10.0   .     S
V4     Er7    10.0   1_565     S
V4     Er11    10.0   1_565     S
Er5     V15    10.0   1_455     S
Er5     V13    10.0   .     S
Er5     V2    10.0   1_545     S
Er6     V16    10.0   1_455     S
Er6     V14    10.0   .     S
Er7     V13    10.0   .     S
Er7     V15    10.0   .     S
Er7     V4    10.0   1_545     S
Er8     V14    10.0   .     S
Er8     V16    10.0   .     S
Er9     V15    10.0   1_456     S
Er9     V13    10.0   1_556     S
Er9     V2    10.0   1_545     S
Er10     V16    10.0   1_456     S
Er10     V14    10.0   1_556     S
Er11     V13    10.0   1_556     S
Er11     V15    10.0   1_556     S
Er11     V4    10.0   1_545     S
Er12     V14    10.0   1_556     S
Er12     V16    10.0   1_556     S
V13     Er11    10.0   1_554     S
V13     Er9    10.0   1_554     S
V14     Er12    10.0   1_554     S
V14     Er10    10.0   1_554     S
V15     Er5    10.0   1_655     S
V15     Er9    10.0   1_654     S
V15     Er11    10.0   1_554     S
V16     Er6    10.0   1_655     S
V16     Er10    10.0   1_654     S
V16     Er12    10.0   1_554     S
