data_srr
_audit_creation_date              2019-12-31
_audit_creation_method            'Pymatgen'
_symmetry_space_group_name_H-M    'P1'
_symmetry_Int_Tables_number       1
loop_
_symmetry_equiv_pos_as_xyz
  x,y,z
_cell_length_a                    42.1794
_cell_length_b                    42.1794
_cell_length_c                    42.1794
_cell_angle_alpha                 90.0
_cell_angle_beta                 90.0
_cell_angle_gamma                 90.0
loop_
_atom_site_label
_atom_site_type_symbol
_atom_site_fract_x
_atom_site_fract_y
_atom_site_fract_z
V1     V     0.0   0.125   0.0625
V2     V     0.0   0.125   0.5625
V3     V     0.0   0.625   0.0625
V4     V     0.0   0.625   0.5625
V5     V     0.5   0.125   0.0625
V6     V     0.5   0.125   0.5625
V7     V     0.5   0.625   0.0625
V8     V     0.5   0.625   0.5625
V9     V     0.0   0.375   0.1875
V10     V     0.0   0.375   0.6875
V11     V     0.0   0.875   0.1875
V12     V     0.0   0.875   0.6875
V13     V     0.5   0.375   0.1875
V14     V     0.5   0.375   0.6875
V15     V     0.5   0.875   0.1875
V16     V     0.5   0.875   0.6875
V17     V     0.25   0.375   0.3125
V18     V     0.25   0.375   0.8125
V19     V     0.25   0.875   0.3125
V20     V     0.25   0.875   0.8125
V21     V     0.75   0.375   0.3125
V22     V     0.75   0.375   0.8125
V23     V     0.75   0.875   0.3125
V24     V     0.75   0.875   0.8125
V25     V     0.25   0.125   0.4375
V26     V     0.25   0.125   0.9375
V27     V     0.25   0.625   0.4375
V28     V     0.25   0.625   0.9375
V29     V     0.75   0.125   0.4375
V30     V     0.75   0.125   0.9375
V31     V     0.75   0.625   0.4375
V32     V     0.75   0.625   0.9375
V33     V     0.0625   0.0   0.125
V34     V     0.0625   0.0   0.625
V35     V     0.0625   0.5   0.125
V36     V     0.0625   0.5   0.625
V37     V     0.5625   0.0   0.125
V38     V     0.5625   0.0   0.625
V39     V     0.5625   0.5   0.125
V40     V     0.5625   0.5   0.625
V41     V     0.125   0.4375   0.25
V42     V     0.125   0.4375   0.75
V43     V     0.125   0.9375   0.25
V44     V     0.125   0.9375   0.75
V45     V     0.625   0.4375   0.25
V46     V     0.625   0.4375   0.75
V47     V     0.625   0.9375   0.25
V48     V     0.625   0.9375   0.75
V49     V     0.1875   0.0   0.375
V50     V     0.1875   0.0   0.875
V51     V     0.1875   0.5   0.375
V52     V     0.1875   0.5   0.875
V53     V     0.6875   0.0   0.375
V54     V     0.6875   0.0   0.875
V55     V     0.6875   0.5   0.375
V56     V     0.6875   0.5   0.875
V57     V     0.125   0.0625   0.0
V58     V     0.125   0.0625   0.5
V59     V     0.125   0.5625   0.0
V60     V     0.125   0.5625   0.5
V61     V     0.625   0.0625   0.0
V62     V     0.625   0.0625   0.5
V63     V     0.625   0.5625   0.0
V64     V     0.625   0.5625   0.5
V65     V     0.375   0.1875   0.0
V66     V     0.375   0.1875   0.5
V67     V     0.375   0.6875   0.0
V68     V     0.375   0.6875   0.5
V69     V     0.875   0.1875   0.0
V70     V     0.875   0.1875   0.5
V71     V     0.875   0.6875   0.0
V72     V     0.875   0.6875   0.5
V73     V     0.4375   0.25   0.125
V74     V     0.4375   0.25   0.625
V75     V     0.4375   0.75   0.125
V76     V     0.4375   0.75   0.625
V77     V     0.9375   0.25   0.125
V78     V     0.9375   0.25   0.625
V79     V     0.9375   0.75   0.125
V80     V     0.9375   0.75   0.625
V81     V     0.375   0.3125   0.25
V82     V     0.375   0.3125   0.75
V83     V     0.375   0.8125   0.25
V84     V     0.375   0.8125   0.75
V85     V     0.875   0.3125   0.25
V86     V     0.875   0.3125   0.75
V87     V     0.875   0.8125   0.25
V88     V     0.875   0.8125   0.75
V89     V     0.3125   0.25   0.375
V90     V     0.3125   0.25   0.875
V91     V     0.3125   0.75   0.375
V92     V     0.3125   0.75   0.875
V93     V     0.8125   0.25   0.375
V94     V     0.8125   0.25   0.875
V95     V     0.8125   0.75   0.375
V96     V     0.8125   0.75   0.875
V97     V     0.0   0.375   0.4375
V98     V     0.0   0.375   0.9375
V99     V     0.0   0.875   0.4375
V100     V     0.0   0.875   0.9375
V101     V     0.5   0.375   0.4375
V102     V     0.5   0.375   0.9375
V103     V     0.5   0.875   0.4375
V104     V     0.5   0.875   0.9375
V105     V     0.0   0.125   0.3125
V106     V     0.0   0.125   0.8125
V107     V     0.0   0.625   0.3125
V108     V     0.0   0.625   0.8125
V109     V     0.5   0.125   0.3125
V110     V     0.5   0.125   0.8125
V111     V     0.5   0.625   0.3125
V112     V     0.5   0.625   0.8125
V113     V     0.25   0.125   0.1875
V114     V     0.25   0.125   0.6875
V115     V     0.25   0.625   0.1875
V116     V     0.25   0.625   0.6875
V117     V     0.75   0.125   0.1875
V118     V     0.75   0.125   0.6875
V119     V     0.75   0.625   0.1875
V120     V     0.75   0.625   0.6875
V121     V     0.25   0.375   0.0625
V122     V     0.25   0.375   0.5625
V123     V     0.25   0.875   0.0625
V124     V     0.25   0.875   0.5625
V125     V     0.75   0.375   0.0625
V126     V     0.75   0.375   0.5625
V127     V     0.75   0.875   0.0625
V128     V     0.75   0.875   0.5625
V129     V     0.4375   0.0   0.375
V130     V     0.4375   0.0   0.875
V131     V     0.4375   0.5   0.375
V132     V     0.4375   0.5   0.875
V133     V     0.9375   0.0   0.375
V134     V     0.9375   0.0   0.875
V135     V     0.9375   0.5   0.375
V136     V     0.9375   0.5   0.875
V137     V     0.375   0.0625   0.25
V138     V     0.375   0.0625   0.75
V139     V     0.375   0.5625   0.25
V140     V     0.375   0.5625   0.75
V141     V     0.875   0.0625   0.25
V142     V     0.875   0.0625   0.75
V143     V     0.875   0.5625   0.25
V144     V     0.875   0.5625   0.75
V145     V     0.3125   0.0   0.125
V146     V     0.3125   0.0   0.625
V147     V     0.3125   0.5   0.125
V148     V     0.3125   0.5   0.625
V149     V     0.8125   0.0   0.125
V150     V     0.8125   0.0   0.625
V151     V     0.8125   0.5   0.125
V152     V     0.8125   0.5   0.625
V153     V     0.375   0.4375   0.0
V154     V     0.375   0.4375   0.5
V155     V     0.375   0.9375   0.0
V156     V     0.375   0.9375   0.5
V157     V     0.875   0.4375   0.0
V158     V     0.875   0.4375   0.5
V159     V     0.875   0.9375   0.0
V160     V     0.875   0.9375   0.5
V161     V     0.125   0.3125   0.0
V162     V     0.125   0.3125   0.5
V163     V     0.125   0.8125   0.0
V164     V     0.125   0.8125   0.5
V165     V     0.625   0.3125   0.0
V166     V     0.625   0.3125   0.5
V167     V     0.625   0.8125   0.0
V168     V     0.625   0.8125   0.5
V169     V     0.0625   0.25   0.375
V170     V     0.0625   0.25   0.875
V171     V     0.0625   0.75   0.375
V172     V     0.0625   0.75   0.875
V173     V     0.5625   0.25   0.375
V174     V     0.5625   0.25   0.875
V175     V     0.5625   0.75   0.375
V176     V     0.5625   0.75   0.875
V177     V     0.125   0.1875   0.25
V178     V     0.125   0.1875   0.75
V179     V     0.125   0.6875   0.25
V180     V     0.125   0.6875   0.75
V181     V     0.625   0.1875   0.25
V182     V     0.625   0.1875   0.75
V183     V     0.625   0.6875   0.25
V184     V     0.625   0.6875   0.75
V185     V     0.1875   0.25   0.125
V186     V     0.1875   0.25   0.625
V187     V     0.1875   0.75   0.125
V188     V     0.1875   0.75   0.625
V189     V     0.6875   0.25   0.125
V190     V     0.6875   0.25   0.625
V191     V     0.6875   0.75   0.125
V192     V     0.6875   0.75   0.625
loop_
_geom_bond_atom_site_label_1
_geom_bond_atom_site_label_2
_geom_bond_distance
_geom_bond_site_symmetry_2
_ccdc_geom_bond_type
V1     V134    9.864   1_454     S
V1     V159    9.864   1_445     S
V1     V170    9.864   1_554     S
V1     V161    9.864   .     S
V1     V185    9.864   .     S
V1     V149    9.864   1_455     S
V1     V141    9.864   1_455     S
V1     V177    9.864   .     S
V1     V106    10.545   1_554     S
V1     V105    10.545   .     S
V2     V133    9.864   1_455     S
V2     V160    9.864   1_445     S
V2     V169    9.864   .     S
V2     V162    9.864   .     S
V2     V186    9.864   .     S
V2     V150    9.864   1_455     S
V2     V142    9.864   1_455     S
V2     V178    9.864   .     S
V2     V105    10.545   .     S
V2     V106    10.545   .     S
V3     V136    9.864   1_454     S
V3     V157    9.864   1_455     S
V3     V172    9.864   1_554     S
V3     V163    9.864   .     S
V3     V187    9.864   .     S
V3     V151    9.864   1_455     S
V3     V143    9.864   1_455     S
V3     V179    9.864   .     S
V3     V108    10.545   1_554     S
V3     V107    10.545   .     S
V4     V135    9.864   1_455     S
V4     V158    9.864   1_455     S
V4     V171    9.864   .     S
V4     V164    9.864   .     S
V4     V188    9.864   .     S
V4     V152    9.864   1_455     S
V4     V144    9.864   1_455     S
V4     V180    9.864   .     S
V4     V107    10.545   .     S
V4     V108    10.545   .     S
V5     V130    9.864   1_554     S
V5     V155    9.864   1_545     S
V5     V174    9.864   1_554     S
V5     V165    9.864   .     S
V5     V189    9.864   .     S
V5     V145    9.864   .     S
V5     V137    9.864   .     S
V5     V181    9.864   .     S
V5     V110    10.545   1_554     S
V5     V109    10.545   .     S
V6     V129    9.864   .     S
V6     V156    9.864   1_545     S
V6     V173    9.864   .     S
V6     V166    9.864   .     S
V6     V190    9.864   .     S
V6     V146    9.864   .     S
V6     V138    9.864   .     S
V6     V182    9.864   .     S
V6     V109    10.545   .     S
V6     V110    10.545   .     S
V7     V132    9.864   1_554     S
V7     V153    9.864   .     S
V7     V176    9.864   1_554     S
V7     V167    9.864   .     S
V7     V191    9.864   .     S
V7     V147    9.864   .     S
V7     V139    9.864   .     S
V7     V183    9.864   .     S
V7     V112    10.545   1_554     S
V7     V111    10.545   .     S
V8     V131    9.864   .     S
V8     V154    9.864   .     S
V8     V175    9.864   .     S
V8     V168    9.864   .     S
V8     V192    9.864   .     S
V8     V148    9.864   .     S
V8     V140    9.864   .     S
V8     V184    9.864   .     S
V8     V111    10.545   .     S
V8     V112    10.545   .     S
V9     V157    9.864   1_455     S
V9     V151    9.864   1_455     S
V9     V185    9.864   .     S
V9     V161    9.864   .     S
V9     V143    9.864   1_455     S
V9     V135    9.864   1_455     S
V9     V169    9.864   .     S
V9     V177    9.864   .     S
V9     V98    10.545   1_554     S
V9     V97    10.545   .     S
V10     V158    9.864   1_455     S
V10     V152    9.864   1_455     S
V10     V186    9.864   .     S
V10     V162    9.864   .     S
V10     V144    9.864   1_455     S
V10     V136    9.864   1_455     S
V10     V170    9.864   .     S
V10     V178    9.864   .     S
V10     V97    10.545   .     S
V10     V98    10.545   .     S
V11     V159    9.864   1_455     S
V11     V149    9.864   1_465     S
V11     V187    9.864   .     S
V11     V163    9.864   .     S
V11     V141    9.864   1_465     S
V11     V133    9.864   1_465     S
V11     V171    9.864   .     S
V11     V179    9.864   .     S
V11     V100    10.545   1_554     S
V11     V99    10.545   .     S
V12     V160    9.864   1_455     S
V12     V150    9.864   1_465     S
V12     V188    9.864   .     S
V12     V164    9.864   .     S
V12     V142    9.864   1_465     S
V12     V134    9.864   1_465     S
V12     V172    9.864   .     S
V12     V180    9.864   .     S
V12     V99    10.545   .     S
V12     V100    10.545   .     S
V13     V153    9.864   .     S
V13     V147    9.864   .     S
V13     V189    9.864   .     S
V13     V165    9.864   .     S
V13     V139    9.864   .     S
V13     V131    9.864   .     S
V13     V173    9.864   .     S
V13     V181    9.864   .     S
V13     V102    10.545   1_554     S
V13     V101    10.545   .     S
V14     V154    9.864   .     S
V14     V148    9.864   .     S
V14     V190    9.864   .     S
V14     V166    9.864   .     S
V14     V140    9.864   .     S
V14     V132    9.864   .     S
V14     V174    9.864   .     S
V14     V182    9.864   .     S
V14     V101    10.545   .     S
V14     V102    10.545   .     S
V15     V155    9.864   .     S
V15     V145    9.864   1_565     S
V15     V191    9.864   .     S
V15     V167    9.864   .     S
V15     V137    9.864   1_565     S
V15     V129    9.864   1_565     S
V15     V175    9.864   .     S
V15     V183    9.864   .     S
V15     V104    10.545   1_554     S
V15     V103    10.545   .     S
V16     V156    9.864   .     S
V16     V146    9.864   1_565     S
V16     V192    9.864   .     S
V16     V168    9.864   .     S
V16     V138    9.864   1_565     S
V16     V130    9.864   1_565     S
V16     V176    9.864   .     S
V16     V184    9.864   .     S
V16     V103    10.545   .     S
V16     V104    10.545   .     S
V17     V162    9.864   .     S
V17     V154    9.864   .     S
V17     V169    9.864   .     S
V17     V177    9.864   .     S
V17     V185    9.864   .     S
V17     V147    9.864   .     S
V17     V139    9.864   .     S
V17     V131    9.864   .     S
V17     V122    10.545   .     S
V17     V121    10.545   .     S
V18     V161    9.864   1_556     S
V18     V153    9.864   1_556     S
V18     V170    9.864   .     S
V18     V178    9.864   .     S
V18     V186    9.864   .     S
V18     V148    9.864   .     S
V18     V140    9.864   .     S
V18     V132    9.864   .     S
V18     V121    10.545   1_556     S
V18     V122    10.545   .     S
V19     V164    9.864   .     S
V19     V156    9.864   .     S
V19     V171    9.864   .     S
V19     V179    9.864   .     S
V19     V187    9.864   .     S
V19     V145    9.864   1_565     S
V19     V137    9.864   1_565     S
V19     V129    9.864   1_565     S
V19     V124    10.545   .     S
V19     V123    10.545   .     S
V20     V163    9.864   1_556     S
V20     V155    9.864   1_556     S
V20     V172    9.864   .     S
V20     V180    9.864   .     S
V20     V188    9.864   .     S
V20     V146    9.864   1_565     S
V20     V138    9.864   1_565     S
V20     V130    9.864   1_565     S
V20     V123    10.545   1_556     S
V20     V124    10.545   .     S
V21     V166    9.864   .     S
V21     V158    9.864   .     S
V21     V173    9.864   .     S
V21     V181    9.864   .     S
V21     V189    9.864   .     S
V21     V151    9.864   .     S
V21     V143    9.864   .     S
V21     V135    9.864   .     S
V21     V126    10.545   .     S
V21     V125    10.545   .     S
V22     V165    9.864   1_556     S
V22     V157    9.864   1_556     S
V22     V174    9.864   .     S
V22     V182    9.864   .     S
V22     V190    9.864   .     S
V22     V152    9.864   .     S
V22     V144    9.864   .     S
V22     V136    9.864   .     S
V22     V125    10.545   1_556     S
V22     V126    10.545   .     S
V23     V168    9.864   .     S
V23     V160    9.864   .     S
V23     V175    9.864   .     S
V23     V183    9.864   .     S
V23     V191    9.864   .     S
V23     V149    9.864   1_565     S
V23     V141    9.864   1_565     S
V23     V133    9.864   1_565     S
V23     V128    10.545   .     S
V23     V127    10.545   .     S
V24     V167    9.864   1_556     S
V24     V159    9.864   1_556     S
V24     V176    9.864   .     S
V24     V184    9.864   .     S
V24     V192    9.864   .     S
V24     V150    9.864   1_565     S
V24     V142    9.864   1_565     S
V24     V134    9.864   1_565     S
V24     V127    10.545   1_556     S
V24     V128    10.545   .     S
V25     V186    9.864   .     S
V25     V162    9.864   .     S
V25     V146    9.864   .     S
V25     V156    9.864   1_545     S
V25     V129    9.864   .     S
V25     V177    9.864   .     S
V25     V137    9.864   .     S
V25     V169    9.864   .     S
V25     V114    10.545   .     S
V25     V113    10.545   .     S
V26     V185    9.864   1_556     S
V26     V161    9.864   1_556     S
V26     V145    9.864   1_556     S
V26     V155    9.864   1_546     S
V26     V130    9.864   .     S
V26     V178    9.864   .     S
V26     V138    9.864   .     S
V26     V170    9.864   .     S
V26     V113    10.545   1_556     S
V26     V114    10.545   .     S
V27     V188    9.864   .     S
V27     V164    9.864   .     S
V27     V148    9.864   .     S
V27     V154    9.864   .     S
V27     V131    9.864   .     S
V27     V179    9.864   .     S
V27     V139    9.864   .     S
V27     V171    9.864   .     S
V27     V116    10.545   .     S
V27     V115    10.545   .     S
V28     V187    9.864   1_556     S
V28     V163    9.864   1_556     S
V28     V147    9.864   1_556     S
V28     V153    9.864   1_556     S
V28     V132    9.864   .     S
V28     V180    9.864   .     S
V28     V140    9.864   .     S
V28     V172    9.864   .     S
V28     V115    10.545   1_556     S
V28     V116    10.545   .     S
V29     V190    9.864   .     S
V29     V166    9.864   .     S
V29     V150    9.864   .     S
V29     V160    9.864   1_545     S
V29     V133    9.864   .     S
V29     V181    9.864   .     S
V29     V141    9.864   .     S
V29     V173    9.864   .     S
V29     V118    10.545   .     S
V29     V117    10.545   .     S
V30     V189    9.864   1_556     S
V30     V165    9.864   1_556     S
V30     V149    9.864   1_556     S
V30     V159    9.864   1_546     S
V30     V134    9.864   .     S
V30     V182    9.864   .     S
V30     V142    9.864   .     S
V30     V174    9.864   .     S
V30     V117    10.545   1_556     S
V30     V118    10.545   .     S
V31     V192    9.864   .     S
V31     V168    9.864   .     S
V31     V152    9.864   .     S
V31     V158    9.864   .     S
V31     V135    9.864   .     S
V31     V183    9.864   .     S
V31     V143    9.864   .     S
V31     V175    9.864   .     S
V31     V120    10.545   .     S
V31     V119    10.545   .     S
V32     V191    9.864   1_556     S
V32     V167    9.864   1_556     S
V32     V151    9.864   1_556     S
V32     V157    9.864   1_556     S
V32     V136    9.864   .     S
V32     V184    9.864   .     S
V32     V144    9.864   .     S
V32     V176    9.864   .     S
V32     V119    10.545   1_556     S
V32     V120    10.545   .     S
V33     V100    9.864   1_544     S
V33     V159    9.864   1_445     S
V33     V163    9.864   1_545     S
V33     V123    9.864   1_545     S
V33     V105    9.864   .     S
V33     V141    9.864   1_455     S
V33     V177    9.864   .     S
V33     V113    9.864   .     S
V33     V149    10.545   1_455     S
V33     V145    10.545   .     S
V34     V99    9.864   1_545     S
V34     V160    9.864   1_445     S
V34     V164    9.864   1_545     S
V34     V124    9.864   1_545     S
V34     V106    9.864   .     S
V34     V142    9.864   1_455     S
V34     V178    9.864   .     S
V34     V114    9.864   .     S
V34     V150    10.545   1_455     S
V34     V146    10.545   .     S
V35     V98    9.864   1_554     S
V35     V157    9.864   1_455     S
V35     V161    9.864   .     S
V35     V121    9.864   .     S
V35     V107    9.864   .     S
V35     V143    9.864   1_455     S
V35     V179    9.864   .     S
V35     V115    9.864   .     S
V35     V151    10.545   1_455     S
V35     V147    10.545   .     S
V36     V97    9.864   .     S
V36     V158    9.864   1_455     S
V36     V162    9.864   .     S
V36     V122    9.864   .     S
V36     V108    9.864   .     S
V36     V144    9.864   1_455     S
V36     V180    9.864   .     S
V36     V116    9.864   .     S
V36     V152    10.545   1_455     S
V36     V148    10.545   .     S
V37     V104    9.864   1_544     S
V37     V155    9.864   1_545     S
V37     V167    9.864   1_545     S
V37     V127    9.864   1_545     S
V37     V109    9.864   .     S
V37     V137    9.864   .     S
V37     V181    9.864   .     S
V37     V117    9.864   .     S
V37     V145    10.545   .     S
V37     V149    10.545   .     S
V38     V103    9.864   1_545     S
V38     V156    9.864   1_545     S
V38     V168    9.864   1_545     S
V38     V128    9.864   1_545     S
V38     V110    9.864   .     S
V38     V138    9.864   .     S
V38     V182    9.864   .     S
V38     V118    9.864   .     S
V38     V146    10.545   .     S
V38     V150    10.545   .     S
V39     V102    9.864   1_554     S
V39     V153    9.864   .     S
V39     V165    9.864   .     S
V39     V125    9.864   .     S
V39     V111    9.864   .     S
V39     V139    9.864   .     S
V39     V183    9.864   .     S
V39     V119    9.864   .     S
V39     V147    10.545   .     S
V39     V151    10.545   .     S
V40     V101    9.864   .     S
V40     V154    9.864   .     S
V40     V166    9.864   .     S
V40     V126    9.864   .     S
V40     V112    9.864   .     S
V40     V140    9.864   .     S
V40     V184    9.864   .     S
V40     V120    9.864   .     S
V40     V148    10.545   .     S
V40     V152    10.545   .     S
V41     V169    9.864   .     S
V41     V185    9.864   .     S
V41     V115    9.864   .     S
V41     V147    9.864   .     S
V41     V135    9.864   1_455     S
V41     V97    9.864   .     S
V41     V107    9.864   .     S
V41     V121    9.864   .     S
V41     V177    10.545   .     S
V41     V179    10.545   .     S
V42     V170    9.864   .     S
V42     V186    9.864   .     S
V42     V116    9.864   .     S
V42     V148    9.864   .     S
V42     V136    9.864   1_455     S
V42     V98    9.864   .     S
V42     V108    9.864   .     S
V42     V122    9.864   .     S
V42     V178    10.545   .     S
V42     V180    10.545   .     S
V43     V171    9.864   .     S
V43     V187    9.864   .     S
V43     V113    9.864   1_565     S
V43     V145    9.864   1_565     S
V43     V133    9.864   1_465     S
V43     V99    9.864   .     S
V43     V105    9.864   1_565     S
V43     V123    9.864   .     S
V43     V179    10.545   .     S
V43     V177    10.545   1_565     S
V44     V172    9.864   .     S
V44     V188    9.864   .     S
V44     V114    9.864   1_565     S
V44     V146    9.864   1_565     S
V44     V134    9.864   1_465     S
V44     V100    9.864   .     S
V44     V106    9.864   1_565     S
V44     V124    9.864   .     S
V44     V180    10.545   .     S
V44     V178    10.545   1_565     S
V45     V173    9.864   .     S
V45     V189    9.864   .     S
V45     V119    9.864   .     S
V45     V151    9.864   .     S
V45     V131    9.864   .     S
V45     V101    9.864   .     S
V45     V111    9.864   .     S
V45     V125    9.864   .     S
V45     V181    10.545   .     S
V45     V183    10.545   .     S
V46     V174    9.864   .     S
V46     V190    9.864   .     S
V46     V120    9.864   .     S
V46     V152    9.864   .     S
V46     V132    9.864   .     S
V46     V102    9.864   .     S
V46     V112    9.864   .     S
V46     V126    9.864   .     S
V46     V182    10.545   .     S
V46     V184    10.545   .     S
V47     V175    9.864   .     S
V47     V191    9.864   .     S
V47     V117    9.864   1_565     S
V47     V149    9.864   1_565     S
V47     V129    9.864   1_565     S
V47     V103    9.864   .     S
V47     V109    9.864   1_565     S
V47     V127    9.864   .     S
V47     V183    10.545   .     S
V47     V181    10.545   1_565     S
V48     V176    9.864   .     S
V48     V192    9.864   .     S
V48     V118    9.864   1_565     S
V48     V150    9.864   1_565     S
V48     V130    9.864   1_565     S
V48     V104    9.864   .     S
V48     V110    9.864   1_565     S
V48     V128    9.864   .     S
V48     V184    10.545   .     S
V48     V182    10.545   1_565     S
V49     V99    9.864   1_545     S
V49     V164    9.864   1_545     S
V49     V156    9.864   1_545     S
V49     V124    9.864   1_545     S
V49     V113    9.864   .     S
V49     V137    9.864   .     S
V49     V105    9.864   .     S
V49     V177    9.864   .     S
V49     V133    10.545   1_455     S
V49     V129    10.545   .     S
V50     V100    9.864   1_545     S
V50     V163    9.864   1_546     S
V50     V155    9.864   1_546     S
V50     V123    9.864   1_546     S
V50     V114    9.864   .     S
V50     V138    9.864   .     S
V50     V106    9.864   .     S
V50     V178    9.864   .     S
V50     V134    10.545   1_455     S
V50     V130    10.545   .     S
V51     V97    9.864   .     S
V51     V162    9.864   .     S
V51     V154    9.864   .     S
V51     V122    9.864   .     S
V51     V115    9.864   .     S
V51     V139    9.864   .     S
V51     V107    9.864   .     S
V51     V179    9.864   .     S
V51     V135    10.545   1_455     S
V51     V131    10.545   .     S
V52     V98    9.864   .     S
V52     V161    9.864   1_556     S
V52     V153    9.864   1_556     S
V52     V121    9.864   1_556     S
V52     V116    9.864   .     S
V52     V140    9.864   .     S
V52     V108    9.864   .     S
V52     V180    9.864   .     S
V52     V136    10.545   1_455     S
V52     V132    10.545   .     S
V53     V103    9.864   1_545     S
V53     V168    9.864   1_545     S
V53     V160    9.864   1_545     S
V53     V128    9.864   1_545     S
V53     V117    9.864   .     S
V53     V141    9.864   .     S
V53     V109    9.864   .     S
V53     V181    9.864   .     S
V53     V129    10.545   .     S
V53     V133    10.545   .     S
V54     V104    9.864   1_545     S
V54     V167    9.864   1_546     S
V54     V159    9.864   1_546     S
V54     V127    9.864   1_546     S
V54     V118    9.864   .     S
V54     V142    9.864   .     S
V54     V110    9.864   .     S
V54     V182    9.864   .     S
V54     V130    10.545   .     S
V54     V134    10.545   .     S
V55     V101    9.864   .     S
V55     V166    9.864   .     S
V55     V158    9.864   .     S
V55     V126    9.864   .     S
V55     V119    9.864   .     S
V55     V143    9.864   .     S
V55     V111    9.864   .     S
V55     V183    9.864   .     S
V55     V131    10.545   .     S
V55     V135    10.545   .     S
V56     V102    9.864   .     S
V56     V165    9.864   1_556     S
V56     V157    9.864   1_556     S
V56     V125    9.864   1_556     S
V56     V120    9.864   .     S
V56     V144    9.864   .     S
V56     V112    9.864   .     S
V56     V184    9.864   .     S
V56     V132    10.545   .     S
V56     V136    10.545   .     S
V57     V134    9.864   1_454     S
V57     V100    9.864   1_544     S
V57     V106    9.864   1_554     S
V57     V170    9.864   1_554     S
V57     V123    9.864   1_545     S
V57     V145    9.864   .     S
V57     V113    9.864   .     S
V57     V185    9.864   .     S
V57     V163    10.545   1_545     S
V57     V161    10.545   .     S
V58     V133    9.864   1_455     S
V58     V99    9.864   1_545     S
V58     V105    9.864   .     S
V58     V169    9.864   .     S
V58     V124    9.864   1_545     S
V58     V146    9.864   .     S
V58     V114    9.864   .     S
V58     V186    9.864   .     S
V58     V164    10.545   1_545     S
V58     V162    10.545   .     S
V59     V136    9.864   1_454     S
V59     V98    9.864   1_554     S
V59     V108    9.864   1_554     S
V59     V172    9.864   1_554     S
V59     V121    9.864   .     S
V59     V147    9.864   .     S
V59     V115    9.864   .     S
V59     V187    9.864   .     S
V59     V161    10.545   .     S
V59     V163    10.545   .     S
V60     V135    9.864   1_455     S
V60     V97    9.864   .     S
V60     V107    9.864   .     S
V60     V171    9.864   .     S
V60     V122    9.864   .     S
V60     V148    9.864   .     S
V60     V116    9.864   .     S
V60     V188    9.864   .     S
V60     V162    10.545   .     S
V60     V164    10.545   .     S
V61     V130    9.864   1_554     S
V61     V104    9.864   1_544     S
V61     V110    9.864   1_554     S
V61     V174    9.864   1_554     S
V61     V127    9.864   1_545     S
V61     V149    9.864   .     S
V61     V117    9.864   .     S
V61     V189    9.864   .     S
V61     V167    10.545   1_545     S
V61     V165    10.545   .     S
V62     V129    9.864   .     S
V62     V103    9.864   1_545     S
V62     V109    9.864   .     S
V62     V173    9.864   .     S
V62     V128    9.864   1_545     S
V62     V150    9.864   .     S
V62     V118    9.864   .     S
V62     V190    9.864   .     S
V62     V168    10.545   1_545     S
V62     V166    10.545   .     S
V63     V132    9.864   1_554     S
V63     V102    9.864   1_554     S
V63     V112    9.864   1_554     S
V63     V176    9.864   1_554     S
V63     V125    9.864   .     S
V63     V151    9.864   .     S
V63     V119    9.864   .     S
V63     V191    9.864   .     S
V63     V165    10.545   .     S
V63     V167    10.545   .     S
V64     V131    9.864   .     S
V64     V101    9.864   .     S
V64     V111    9.864   .     S
V64     V175    9.864   .     S
V64     V126    9.864   .     S
V64     V152    9.864   .     S
V64     V120    9.864   .     S
V64     V192    9.864   .     S
V64     V166    10.545   .     S
V64     V168    10.545   .     S
V65     V110    9.864   1_554     S
V65     V130    9.864   1_554     S
V65     V121    9.864   .     S
V65     V185    9.864   .     S
V65     V113    9.864   .     S
V65     V145    9.864   .     S
V65     V102    9.864   1_554     S
V65     V174    9.864   1_554     S
V65     V155    10.545   1_545     S
V65     V153    10.545   .     S
V66     V109    9.864   .     S
V66     V129    9.864   .     S
V66     V122    9.864   .     S
V66     V186    9.864   .     S
V66     V114    9.864   .     S
V66     V146    9.864   .     S
V66     V101    9.864   .     S
V66     V173    9.864   .     S
V66     V156    10.545   1_545     S
V66     V154    10.545   .     S
V67     V112    9.864   1_554     S
V67     V132    9.864   1_554     S
V67     V123    9.864   .     S
V67     V187    9.864   .     S
V67     V115    9.864   .     S
V67     V147    9.864   .     S
V67     V104    9.864   1_554     S
V67     V176    9.864   1_554     S
V67     V153    10.545   .     S
V67     V155    10.545   .     S
V68     V111    9.864   .     S
V68     V131    9.864   .     S
V68     V124    9.864   .     S
V68     V188    9.864   .     S
V68     V116    9.864   .     S
V68     V148    9.864   .     S
V68     V103    9.864   .     S
V68     V175    9.864   .     S
V68     V154    10.545   .     S
V68     V156    10.545   .     S
V69     V106    9.864   1_654     S
V69     V134    9.864   1_554     S
V69     V125    9.864   .     S
V69     V189    9.864   .     S
V69     V117    9.864   .     S
V69     V149    9.864   .     S
V69     V98    9.864   1_654     S
V69     V170    9.864   1_654     S
V69     V159    10.545   1_545     S
V69     V157    10.545   .     S
V70     V105    9.864   1_655     S
V70     V133    9.864   .     S
V70     V126    9.864   .     S
V70     V190    9.864   .     S
V70     V118    9.864   .     S
V70     V150    9.864   .     S
V70     V97    9.864   1_655     S
V70     V169    9.864   1_655     S
V70     V160    10.545   1_545     S
V70     V158    10.545   .     S
V71     V108    9.864   1_654     S
V71     V136    9.864   1_554     S
V71     V127    9.864   .     S
V71     V191    9.864   .     S
V71     V119    9.864   .     S
V71     V151    9.864   .     S
V71     V100    9.864   1_654     S
V71     V172    9.864   1_654     S
V71     V157    10.545   .     S
V71     V159    10.545   .     S
V72     V107    9.864   1_655     S
V72     V135    9.864   .     S
V72     V128    9.864   .     S
V72     V192    9.864   .     S
V72     V120    9.864   .     S
V72     V152    9.864   .     S
V72     V99    9.864   1_655     S
V72     V171    9.864   1_655     S
V72     V158    10.545   .     S
V72     V160    10.545   .     S
V73     V121    9.864   .     S
V73     V113    9.864   .     S
V73     V165    9.864   .     S
V73     V102    9.864   1_554     S
V73     V153    9.864   .     S
V73     V109    9.864   .     S
V73     V181    9.864   .     S
V73     V137    9.864   .     S
V73     V185    10.545   .     S
V73     V189    10.545   .     S
V74     V122    9.864   .     S
V74     V114    9.864   .     S
V74     V166    9.864   .     S
V74     V101    9.864   .     S
V74     V154    9.864   .     S
V74     V110    9.864   .     S
V74     V182    9.864   .     S
V74     V138    9.864   .     S
V74     V186    10.545   .     S
V74     V190    10.545   .     S
V75     V123    9.864   .     S
V75     V115    9.864   .     S
V75     V167    9.864   .     S
V75     V104    9.864   1_554     S
V75     V155    9.864   .     S
V75     V111    9.864   .     S
V75     V183    9.864   .     S
V75     V139    9.864   .     S
V75     V187    10.545   .     S
V75     V191    10.545   .     S
V76     V124    9.864   .     S
V76     V116    9.864   .     S
V76     V168    9.864   .     S
V76     V103    9.864   .     S
V76     V156    9.864   .     S
V76     V112    9.864   .     S
V76     V184    9.864   .     S
V76     V140    9.864   .     S
V76     V188    10.545   .     S
V76     V192    10.545   .     S
V77     V125    9.864   .     S
V77     V117    9.864   .     S
V77     V161    9.864   1_655     S
V77     V98    9.864   1_654     S
V77     V157    9.864   .     S
V77     V105    9.864   1_655     S
V77     V177    9.864   1_655     S
V77     V141    9.864   .     S
V77     V189    10.545   .     S
V77     V185    10.545   1_655     S
V78     V126    9.864   .     S
V78     V118    9.864   .     S
V78     V162    9.864   1_655     S
V78     V97    9.864   1_655     S
V78     V158    9.864   .     S
V78     V106    9.864   1_655     S
V78     V178    9.864   1_655     S
V78     V142    9.864   .     S
V78     V190    10.545   .     S
V78     V186    10.545   1_655     S
V79     V127    9.864   .     S
V79     V119    9.864   .     S
V79     V163    9.864   1_655     S
V79     V100    9.864   1_654     S
V79     V159    9.864   .     S
V79     V107    9.864   1_655     S
V79     V179    9.864   1_655     S
V79     V143    9.864   .     S
V79     V191    10.545   .     S
V79     V187    10.545   1_655     S
V80     V128    9.864   .     S
V80     V120    9.864   .     S
V80     V164    9.864   1_655     S
V80     V99    9.864   1_655     S
V80     V160    9.864   .     S
V80     V108    9.864   1_655     S
V80     V180    9.864   1_655     S
V80     V144    9.864   .     S
V80     V192    10.545   .     S
V80     V188    10.545   1_655     S
V81     V121    9.864   .     S
V81     V113    9.864   .     S
V81     V185    9.864   .     S
V81     V147    9.864   .     S
V81     V131    9.864   .     S
V81     V109    9.864   .     S
V81     V173    9.864   .     S
V81     V101    9.864   .     S
V81     V139    10.545   .     S
V81     V137    10.545   .     S
V82     V122    9.864   .     S
V82     V114    9.864   .     S
V82     V186    9.864   .     S
V82     V148    9.864   .     S
V82     V132    9.864   .     S
V82     V110    9.864   .     S
V82     V174    9.864   .     S
V82     V102    9.864   .     S
V82     V140    10.545   .     S
V82     V138    10.545   .     S
V83     V123    9.864   .     S
V83     V115    9.864   .     S
V83     V187    9.864   .     S
V83     V145    9.864   1_565     S
V83     V129    9.864   1_565     S
V83     V111    9.864   .     S
V83     V175    9.864   .     S
V83     V103    9.864   .     S
V83     V137    10.545   1_565     S
V83     V139    10.545   .     S
V84     V124    9.864   .     S
V84     V116    9.864   .     S
V84     V188    9.864   .     S
V84     V146    9.864   1_565     S
V84     V130    9.864   1_565     S
V84     V112    9.864   .     S
V84     V176    9.864   .     S
V84     V104    9.864   .     S
V84     V138    10.545   1_565     S
V84     V140    10.545   .     S
V85     V125    9.864   .     S
V85     V117    9.864   .     S
V85     V189    9.864   .     S
V85     V151    9.864   .     S
V85     V135    9.864   .     S
V85     V105    9.864   1_655     S
V85     V169    9.864   1_655     S
V85     V97    9.864   1_655     S
V85     V143    10.545   .     S
V85     V141    10.545   .     S
V86     V126    9.864   .     S
V86     V118    9.864   .     S
V86     V190    9.864   .     S
V86     V152    9.864   .     S
V86     V136    9.864   .     S
V86     V106    9.864   1_655     S
V86     V170    9.864   1_655     S
V86     V98    9.864   1_655     S
V86     V144    10.545   .     S
V86     V142    10.545   .     S
V87     V127    9.864   .     S
V87     V119    9.864   .     S
V87     V191    9.864   .     S
V87     V149    9.864   1_565     S
V87     V133    9.864   1_565     S
V87     V107    9.864   1_655     S
V87     V171    9.864   1_655     S
V87     V99    9.864   1_655     S
V87     V141    10.545   1_565     S
V87     V143    10.545   .     S
V88     V128    9.864   .     S
V88     V120    9.864   .     S
V88     V192    9.864   .     S
V88     V150    9.864   1_565     S
V88     V134    9.864   1_565     S
V88     V108    9.864   1_655     S
V88     V172    9.864   1_655     S
V88     V100    9.864   1_655     S
V88     V142    10.545   1_565     S
V88     V144    10.545   .     S
V89     V122    9.864   .     S
V89     V154    9.864   .     S
V89     V162    9.864   .     S
V89     V101    9.864   .     S
V89     V113    9.864   .     S
V89     V177    9.864   .     S
V89     V137    9.864   .     S
V89     V109    9.864   .     S
V89     V169    10.545   .     S
V89     V173    10.545   .     S
V90     V121    9.864   1_556     S
V90     V153    9.864   1_556     S
V90     V161    9.864   1_556     S
V90     V102    9.864   .     S
V90     V114    9.864   .     S
V90     V178    9.864   .     S
V90     V138    9.864   .     S
V90     V110    9.864   .     S
V90     V170    10.545   .     S
V90     V174    10.545   .     S
V91     V124    9.864   .     S
V91     V156    9.864   .     S
V91     V164    9.864   .     S
V91     V103    9.864   .     S
V91     V115    9.864   .     S
V91     V179    9.864   .     S
V91     V139    9.864   .     S
V91     V111    9.864   .     S
V91     V171    10.545   .     S
V91     V175    10.545   .     S
V92     V123    9.864   1_556     S
V92     V155    9.864   1_556     S
V92     V163    9.864   1_556     S
V92     V104    9.864   .     S
V92     V116    9.864   .     S
V92     V180    9.864   .     S
V92     V140    9.864   .     S
V92     V112    9.864   .     S
V92     V172    10.545   .     S
V92     V176    10.545   .     S
V93     V126    9.864   .     S
V93     V158    9.864   .     S
V93     V166    9.864   .     S
V93     V97    9.864   1_655     S
V93     V117    9.864   .     S
V93     V181    9.864   .     S
V93     V141    9.864   .     S
V93     V105    9.864   1_655     S
V93     V173    10.545   .     S
V93     V169    10.545   1_655     S
V94     V125    9.864   1_556     S
V94     V157    9.864   1_556     S
V94     V165    9.864   1_556     S
V94     V98    9.864   1_655     S
V94     V118    9.864   .     S
V94     V182    9.864   .     S
V94     V142    9.864   .     S
V94     V106    9.864   1_655     S
V94     V174    10.545   .     S
V94     V170    10.545   1_655     S
V95     V128    9.864   .     S
V95     V160    9.864   .     S
V95     V168    9.864   .     S
V95     V99    9.864   1_655     S
V95     V119    9.864   .     S
V95     V183    9.864   .     S
V95     V143    9.864   .     S
V95     V107    9.864   1_655     S
V95     V175    10.545   .     S
V95     V171    10.545   1_655     S
V96     V127    9.864   1_556     S
V96     V159    9.864   1_556     S
V96     V167    9.864   1_556     S
V96     V100    9.864   1_655     S
V96     V120    9.864   .     S
V96     V184    9.864   .     S
V96     V144    9.864   .     S
V96     V108    9.864   1_655     S
V96     V176    10.545   .     S
V96     V172    10.545   1_655     S
V97     V78    9.864   1_455     S
V97     V70    9.864   1_455     S
V97     V93    9.864   1_455     S
V97     V85    9.864   1_455     S
V98     V59    9.864   1_556     S
V98     V35    9.864   1_556     S
V98     V77    9.864   1_456     S
V98     V69    9.864   1_456     S
V98     V94    9.864   1_455     S
V98     V86    9.864   1_455     S
V98     V9    10.545   1_556     S
V99     V58    9.864   1_565     S
V99     V34    9.864   1_565     S
V99     V49    9.864   1_565     S
V99     V80    9.864   1_455     S
V99     V72    9.864   1_455     S
V99     V95    9.864   1_455     S
V99     V87    9.864   1_455     S
V100     V57    9.864   1_566     S
V100     V33    9.864   1_566     S
V100     V50    9.864   1_565     S
V100     V79    9.864   1_456     S
V100     V71    9.864   1_456     S
V100     V96    9.864   1_455     S
V100     V88    9.864   1_455     S
V100     V11    10.545   1_556     S
V102     V63    9.864   1_556     S
V102     V39    9.864   1_556     S
V102     V73    9.864   1_556     S
V102     V65    9.864   1_556     S
V102     V13    10.545   1_556     S
V103     V62    9.864   1_565     S
V103     V38    9.864   1_565     S
V103     V53    9.864   1_565     S
V104     V61    9.864   1_566     S
V104     V37    9.864   1_566     S
V104     V54    9.864   1_565     S
V104     V75    9.864   1_556     S
V104     V67    9.864   1_556     S
V104     V15    10.545   1_556     S
V105     V70    9.864   1_455     S
V105     V43    9.864   1_545     S
V105     V85    9.864   1_455     S
V105     V77    9.864   1_455     S
V105     V93    9.864   1_455     S
V106     V69    9.864   1_456     S
V106     V57    9.864   1_556     S
V106     V44    9.864   1_545     S
V106     V86    9.864   1_455     S
V106     V78    9.864   1_455     S
V106     V94    9.864   1_455     S
V106     V1    10.545   1_556     S
V107     V72    9.864   1_455     S
V107     V87    9.864   1_455     S
V107     V79    9.864   1_455     S
V107     V95    9.864   1_455     S
V108     V71    9.864   1_456     S
V108     V59    9.864   1_556     S
V108     V88    9.864   1_455     S
V108     V80    9.864   1_455     S
V108     V96    9.864   1_455     S
V108     V3    10.545   1_556     S
V109     V47    9.864   1_545     S
V110     V65    9.864   1_556     S
V110     V61    9.864   1_556     S
V110     V48    9.864   1_545     S
V110     V5    10.545   1_556     S
V112     V67    9.864   1_556     S
V112     V63    9.864   1_556     S
V112     V7    10.545   1_556     S
V113     V43    9.864   1_545     S
V113     V26    10.545   1_554     S
V114     V44    9.864   1_545     S
V115     V28    10.545   1_554     S
V117     V47    9.864   1_545     S
V117     V30    10.545   1_554     S
V118     V48    9.864   1_545     S
V119     V32    10.545   1_554     S
V121     V90    9.864   1_554     S
V121     V52    9.864   1_554     S
V121     V18    10.545   1_554     S
V123     V92    9.864   1_554     S
V123     V50    9.864   1_564     S
V123     V57    9.864   1_565     S
V123     V33    9.864   1_565     S
V123     V20    10.545   1_554     S
V124     V49    9.864   1_565     S
V124     V58    9.864   1_565     S
V124     V34    9.864   1_565     S
V125     V94    9.864   1_554     S
V125     V56    9.864   1_554     S
V125     V22    10.545   1_554     S
V127     V96    9.864   1_554     S
V127     V54    9.864   1_564     S
V127     V61    9.864   1_565     S
V127     V37    9.864   1_565     S
V127     V24    10.545   1_554     S
V128     V53    9.864   1_565     S
V128     V62    9.864   1_565     S
V128     V38    9.864   1_565     S
V129     V19    9.864   1_545     S
V129     V15    9.864   1_545     S
V129     V47    9.864   1_545     S
V129     V83    9.864   1_545     S
V130     V65    9.864   1_556     S
V130     V5    9.864   1_556     S
V130     V61    9.864   1_556     S
V130     V20    9.864   1_545     S
V130     V16    9.864   1_545     S
V130     V48    9.864   1_545     S
V130     V84    9.864   1_545     S
V132     V67    9.864   1_556     S
V132     V7    9.864   1_556     S
V132     V63    9.864   1_556     S
V133     V2    9.864   1_655     S
V133     V58    9.864   1_655     S
V133     V23    9.864   1_545     S
V133     V11    9.864   1_645     S
V133     V43    9.864   1_645     S
V133     V87    9.864   1_545     S
V133     V49    10.545   1_655     S
V134     V69    9.864   1_556     S
V134     V1    9.864   1_656     S
V134     V57    9.864   1_656     S
V134     V24    9.864   1_545     S
V134     V12    9.864   1_645     S
V134     V44    9.864   1_645     S
V134     V88    9.864   1_545     S
V134     V50    10.545   1_655     S
V135     V4    9.864   1_655     S
V135     V60    9.864   1_655     S
V135     V9    9.864   1_655     S
V135     V41    9.864   1_655     S
V135     V51    10.545   1_655     S
V136     V71    9.864   1_556     S
V136     V3    9.864   1_656     S
V136     V59    9.864   1_656     S
V136     V10    9.864   1_655     S
V136     V42    9.864   1_655     S
V136     V52    10.545   1_655     S
V137     V19    9.864   1_545     S
V137     V15    9.864   1_545     S
V137     V83    10.545   1_545     S
V138     V20    9.864   1_545     S
V138     V16    9.864   1_545     S
V138     V84    10.545   1_545     S
V141     V23    9.864   1_545     S
V141     V33    9.864   1_655     S
V141     V11    9.864   1_645     S
V141     V1    9.864   1_655     S
V141     V87    10.545   1_545     S
V142     V24    9.864   1_545     S
V142     V34    9.864   1_655     S
V142     V12    9.864   1_645     S
V142     V2    9.864   1_655     S
V142     V88    10.545   1_545     S
V143     V35    9.864   1_655     S
V143     V9    9.864   1_655     S
V143     V3    9.864   1_655     S
V144     V36    9.864   1_655     S
V144     V10    9.864   1_655     S
V144     V4    9.864   1_655     S
V145     V15    9.864   1_545     S
V145     V26    9.864   1_554     S
V145     V43    9.864   1_545     S
V145     V19    9.864   1_545     S
V145     V83    9.864   1_545     S
V146     V16    9.864   1_545     S
V146     V44    9.864   1_545     S
V146     V20    9.864   1_545     S
V146     V84    9.864   1_545     S
V147     V28    9.864   1_554     S
V149     V11    9.864   1_645     S
V149     V30    9.864   1_554     S
V149     V47    9.864   1_545     S
V149     V23    9.864   1_545     S
V149     V87    9.864   1_545     S
V149     V1    9.864   1_655     S
V149     V33    10.545   1_655     S
V150     V12    9.864   1_645     S
V150     V48    9.864   1_545     S
V150     V24    9.864   1_545     S
V150     V88    9.864   1_545     S
V150     V2    9.864   1_655     S
V150     V34    10.545   1_655     S
V151     V9    9.864   1_655     S
V151     V32    9.864   1_554     S
V151     V3    9.864   1_655     S
V151     V35    10.545   1_655     S
V152     V10    9.864   1_655     S
V152     V4    9.864   1_655     S
V152     V36    10.545   1_655     S
V153     V90    9.864   1_554     S
V153     V28    9.864   1_554     S
V153     V52    9.864   1_554     S
V153     V18    9.864   1_554     S
V155     V5    9.864   1_565     S
V155     V37    9.864   1_565     S
V155     V92    9.864   1_554     S
V155     V26    9.864   1_564     S
V155     V50    9.864   1_564     S
V155     V20    9.864   1_554     S
V155     V65    10.545   1_565     S
V156     V6    9.864   1_565     S
V156     V38    9.864   1_565     S
V156     V25    9.864   1_565     S
V156     V49    9.864   1_565     S
V156     V66    10.545   1_565     S
V157     V3    9.864   1_655     S
V157     V35    9.864   1_655     S
V157     V9    9.864   1_655     S
V157     V94    9.864   1_554     S
V157     V32    9.864   1_554     S
V157     V56    9.864   1_554     S
V157     V22    9.864   1_554     S
V158     V4    9.864   1_655     S
V158     V36    9.864   1_655     S
V158     V10    9.864   1_655     S
V159     V1    9.864   1_665     S
V159     V33    9.864   1_665     S
V159     V11    9.864   1_655     S
V159     V96    9.864   1_554     S
V159     V30    9.864   1_564     S
V159     V54    9.864   1_564     S
V159     V24    9.864   1_554     S
V159     V69    10.545   1_565     S
V160     V2    9.864   1_665     S
V160     V34    9.864   1_665     S
V160     V12    9.864   1_655     S
V160     V29    9.864   1_565     S
V160     V53    9.864   1_565     S
V160     V70    10.545   1_565     S
V161     V52    9.864   1_554     S
V161     V26    9.864   1_554     S
V161     V90    9.864   1_554     S
V161     V18    9.864   1_554     S
V161     V77    9.864   1_455     S
V162     V78    9.864   1_455     S
V163     V50    9.864   1_564     S
V163     V28    9.864   1_554     S
V163     V92    9.864   1_554     S
V163     V20    9.864   1_554     S
V163     V79    9.864   1_455     S
V163     V33    9.864   1_565     S
V163     V57    10.545   1_565     S
V164     V49    9.864   1_565     S
V164     V80    9.864   1_455     S
V164     V34    9.864   1_565     S
V164     V58    10.545   1_565     S
V165     V56    9.864   1_554     S
V165     V30    9.864   1_554     S
V165     V94    9.864   1_554     S
V165     V22    9.864   1_554     S
V167     V54    9.864   1_564     S
V167     V32    9.864   1_554     S
V167     V96    9.864   1_554     S
V167     V24    9.864   1_554     S
V167     V37    9.864   1_565     S
V167     V61    10.545   1_565     S
V168     V53    9.864   1_565     S
V168     V38    9.864   1_565     S
V168     V62    10.545   1_565     S
V169     V70    9.864   1_455     S
V169     V85    9.864   1_455     S
V169     V93    10.545   1_455     S
V170     V57    9.864   1_556     S
V170     V69    9.864   1_456     S
V170     V1    9.864   1_556     S
V170     V86    9.864   1_455     S
V170     V94    10.545   1_455     S
V171     V72    9.864   1_455     S
V171     V87    9.864   1_455     S
V171     V95    10.545   1_455     S
V172     V59    9.864   1_556     S
V172     V71    9.864   1_456     S
V172     V3    9.864   1_556     S
V172     V88    9.864   1_455     S
V172     V96    10.545   1_455     S
V174     V61    9.864   1_556     S
V174     V65    9.864   1_556     S
V174     V5    9.864   1_556     S
V176     V63    9.864   1_556     S
V176     V67    9.864   1_556     S
V176     V7    9.864   1_556     S
V177     V77    9.864   1_455     S
V177     V43    10.545   1_545     S
V178     V78    9.864   1_455     S
V178     V44    10.545   1_545     S
V179     V79    9.864   1_455     S
V180     V80    9.864   1_455     S
V181     V47    10.545   1_545     S
V182     V48    10.545   1_545     S
V185     V26    9.864   1_554     S
V185     V77    10.545   1_455     S
V186     V78    10.545   1_455     S
V187     V28    9.864   1_554     S
V187     V79    10.545   1_455     S
V188     V80    10.545   1_455     S
V189     V30    9.864   1_554     S
V191     V32    9.864   1_554     S
