data_ssf
_audit_creation_date              2019-12-31
_audit_creation_method            'Pymatgen'
_symmetry_space_group_name_H-M    'P1'
_symmetry_Int_Tables_number       1
loop_
_symmetry_equiv_pos_as_xyz
  x,y,z
_cell_length_a                    40.0
_cell_length_b                    40.0
_cell_length_c                    30.0
_cell_angle_alpha                 90.0
_cell_angle_beta                 90.0
_cell_angle_gamma                 90.0
loop_
_atom_site_label
_atom_site_type_symbol
_atom_site_fract_x
_atom_site_fract_y
_atom_site_fract_z
Er1     Er     0.3748   0.875   0.0
Er2     Er     0.3748   0.875   0.3333
Er3     Er     0.3748   0.875   0.6667
Er4     Er     0.3748   0.125   0.0
Er5     Er     0.3748   0.125   0.3333
Er6     Er     0.3748   0.125   0.6667
Er7     Er     0.875   0.6252   0.0
Er8     Er     0.875   0.6252   0.3333
Er9     Er     0.875   0.6252   0.6667
Er10     Er     0.125   0.6252   0.0
Er11     Er     0.125   0.6252   0.3333
Er12     Er     0.125   0.6252   0.6667
Er13     Er     0.6252   0.125   0.0
Er14     Er     0.6252   0.125   0.3333
Er15     Er     0.6252   0.125   0.6667
Er16     Er     0.6252   0.875   0.0
Er17     Er     0.6252   0.875   0.3333
Er18     Er     0.6252   0.875   0.6667
V19     V     0.375   0.375   0.0
V20     V     0.375   0.375   0.3333
V21     V     0.375   0.375   0.6667
V22     V     0.375   0.625   0.0
V23     V     0.375   0.625   0.3333
V24     V     0.375   0.625   0.6667
V25     V     0.625   0.375   0.0
V26     V     0.625   0.375   0.3333
V27     V     0.625   0.375   0.6667
V28     V     0.625   0.625   0.0
V29     V     0.625   0.625   0.3333
V30     V     0.625   0.625   0.6667
Er31     Er     0.125   0.3748   0.0
Er32     Er     0.125   0.3748   0.3333
Er33     Er     0.125   0.3748   0.6667
Er34     Er     0.875   0.3748   0.0
Er35     Er     0.875   0.3748   0.3333
Er36     Er     0.875   0.3748   0.6667
loop_
_geom_bond_atom_site_label_1
_geom_bond_atom_site_label_2
_geom_bond_distance
_geom_bond_site_symmetry_2
_ccdc_geom_bond_type
Er1     Er4    10.0   1_565     S
Er1     Er2    10.0   .     S
Er1     Er3    10.0   1_554     S
Er1     V22    10.0   .     S
Er2     Er5    10.0   1_565     S
Er2     Er3    10.0   .     S
Er2     V23    10.0   .     S
Er3     Er6    10.0   1_565     S
Er3     Er1    10.0   1_556     S
Er3     V24    10.0   .     S
Er4     Er1    10.0   1_545     S
Er4     Er5    10.0   .     S
Er4     Er6    10.0   1_554     S
Er4     V19    10.0   .     S
Er5     Er2    10.0   1_545     S
Er5     Er6    10.0   .     S
Er5     V20    10.0   .     S
Er6     Er3    10.0   1_545     S
Er6     Er4    10.0   1_556     S
Er6     V21    10.0   .     S
Er7     Er10    10.0   1_655     S
Er7     Er8    10.0   .     S
Er7     Er9    10.0   1_554     S
Er7     V28    10.0   .     S
Er8     Er11    10.0   1_655     S
Er8     Er9    10.0   .     S
Er8     V29    10.0   .     S
Er9     Er12    10.0   1_655     S
Er9     Er7    10.0   1_556     S
Er9     V30    10.0   .     S
Er10     Er7    10.0   1_455     S
Er10     Er11    10.0   .     S
Er10     Er12    10.0   1_554     S
Er10     V22    10.0   .     S
Er11     Er8    10.0   1_455     S
Er11     Er12    10.0   .     S
Er11     V23    10.0   .     S
Er12     Er9    10.0   1_455     S
Er12     Er10    10.0   1_556     S
Er12     V24    10.0   .     S
Er13     Er16    10.0   1_545     S
Er13     Er14    10.0   .     S
Er13     Er15    10.0   1_554     S
Er13     V25    10.0   .     S
Er14     Er17    10.0   1_545     S
Er14     Er15    10.0   .     S
Er14     V26    10.0   .     S
Er15     Er18    10.0   1_545     S
Er15     Er13    10.0   1_556     S
Er15     V27    10.0   .     S
Er16     Er13    10.0   1_565     S
Er16     Er17    10.0   .     S
Er16     Er18    10.0   1_554     S
Er16     V28    10.0   .     S
Er17     Er14    10.0   1_565     S
Er17     Er18    10.0   .     S
Er17     V29    10.0   .     S
Er18     Er15    10.0   1_565     S
Er18     Er16    10.0   1_556     S
Er18     V30    10.0   .     S
V19     V22    10.0   .     S
V19     V25    10.0   .     S
V19     Er31    10.0   .     S
V20     V23    10.0   .     S
V20     V26    10.0   .     S
V20     Er32    10.0   .     S
V21     V24    10.0   .     S
V21     V27    10.0   .     S
V21     Er33    10.0   .     S
V22     V28    10.0   .     S
V23     V29    10.0   .     S
V24     V30    10.0   .     S
V25     V28    10.0   .     S
V25     Er34    10.0   .     S
V26     V29    10.0   .     S
V26     Er35    10.0   .     S
V27     V30    10.0   .     S
V27     Er36    10.0   .     S
Er31     Er34    10.0   1_455     S
Er31     Er32    10.0   .     S
Er31     Er33    10.0   1_554     S
Er32     Er35    10.0   1_455     S
Er32     Er33    10.0   .     S
Er33     Er36    10.0   1_455     S
Er33     Er31    10.0   1_556     S
Er34     Er31    10.0   1_655     S
Er34     Er35    10.0   .     S
Er34     Er36    10.0   1_554     S
Er35     Er32    10.0   1_655     S
Er35     Er36    10.0   .     S
Er36     Er33    10.0   1_655     S
Er36     Er34    10.0   1_556     S
