data_sss
_audit_creation_date              2019-12-31
_audit_creation_method            'Pymatgen'
_symmetry_space_group_name_H-M    'P1'
_symmetry_Int_Tables_number       1
loop_
_symmetry_equiv_pos_as_xyz
  x,y,z
_cell_length_a                    40.0
_cell_length_b                    40.0
_cell_length_c                    32.6598
_cell_angle_alpha                 90.0
_cell_angle_beta                 90.0
_cell_angle_gamma                 120.0
loop_
_atom_site_label
_atom_site_type_symbol
_atom_site_fract_x
_atom_site_fract_y
_atom_site_fract_z
Ti1     Ti     0.1667   0.3333   0.25
Ti2     Ti     0.1667   0.3333   0.75
Ti3     Ti     0.1667   0.8333   0.25
Ti4     Ti     0.1667   0.8333   0.75
Ti5     Ti     0.6667   0.3333   0.25
Ti6     Ti     0.6667   0.3333   0.75
Ti7     Ti     0.6667   0.8333   0.25
Ti8     Ti     0.6667   0.8333   0.75
Ti9     Ti     0.3333   0.1667   0.25
Ti10     Ti     0.3333   0.1667   0.75
Ti11     Ti     0.3333   0.6667   0.25
Ti12     Ti     0.3333   0.6667   0.75
Ti13     Ti     0.8333   0.1667   0.25
Ti14     Ti     0.8333   0.1667   0.75
Ti15     Ti     0.8333   0.6667   0.25
Ti16     Ti     0.8333   0.6667   0.75
Er17     Er     0.0   0.25   0.0
Er18     Er     0.0   0.25   0.5
Er19     Er     1.0   0.75   0.0
Er20     Er     1.0   0.75   0.5
Er21     Er     0.5   0.25   0.0
Er22     Er     0.5   0.25   0.5
Er23     Er     0.5   0.75   0.0
Er24     Er     0.5   0.75   0.5
V25     V     0.0   0.0   0.0
V26     V     0.0   0.0   0.5
V27     V     0.0   0.5   0.0
V28     V     0.0   0.5   0.5
V29     V     0.5   0.0   0.0
V30     V     0.5   0.0   0.5
V31     V     0.5   0.5   0.0
V32     V     0.5   0.5   0.5
Er33     Er     0.25   0.0   0.0
Er34     Er     0.25   0.0   0.5
Er35     Er     0.25   0.5   0.0
Er36     Er     0.25   0.5   0.5
Er37     Er     0.75   0.0   0.0
Er38     Er     0.75   0.0   0.5
Er39     Er     0.75   0.5   0.0
Er40     Er     0.75   0.5   0.5
Er41     Er     0.25   0.25   0.0
Er42     Er     0.25   0.25   0.5
Er43     Er     0.25   0.75   0.0
Er44     Er     0.25   0.75   0.5
Er45     Er     0.75   0.25   0.0
Er46     Er     0.75   0.25   0.5
Er47     Er     0.75   0.75   0.0
Er48     Er     0.75   0.75   0.5
loop_
_geom_bond_atom_site_label_1
_geom_bond_atom_site_label_2
_geom_bond_distance
_geom_bond_site_symmetry_2
_ccdc_geom_bond_type
Ti1     Er42    10.0   .     S
Ti1     Er36    10.0   .     S
Ti1     Er18    10.0   .     S
Ti1     Er35    10.0   .     S
Ti1     Er41    10.0   .     S
Ti1     Er17    10.0   .     S
Ti2     Er41    10.0   1_556     S
Ti2     Er35    10.0   1_556     S
Ti2     Er17    10.0   1_556     S
Ti2     Er36    10.0   .     S
Ti2     Er42    10.0   .     S
Ti2     Er18    10.0   .     S
Ti3     Er44    10.0   .     S
Ti3     Er34    10.0   1_565     S
Ti3     Er20    10.0   1_455     S
Ti3     Er33    10.0   1_565     S
Ti3     Er43    10.0   .     S
Ti3     Er19    10.0   1_455     S
Ti4     Er43    10.0   1_556     S
Ti4     Er33    10.0   1_566     S
Ti4     Er19    10.0   1_456     S
Ti4     Er34    10.0   1_565     S
Ti4     Er44    10.0   .     S
Ti4     Er20    10.0   1_455     S
Ti5     Er46    10.0   .     S
Ti5     Er40    10.0   .     S
Ti5     Er22    10.0   .     S
Ti5     Er39    10.0   .     S
Ti5     Er45    10.0   .     S
Ti5     Er21    10.0   .     S
Ti6     Er45    10.0   1_556     S
Ti6     Er39    10.0   1_556     S
Ti6     Er21    10.0   1_556     S
Ti6     Er40    10.0   .     S
Ti6     Er46    10.0   .     S
Ti6     Er22    10.0   .     S
Ti7     Er48    10.0   .     S
Ti7     Er38    10.0   1_565     S
Ti7     Er24    10.0   .     S
Ti7     Er37    10.0   1_565     S
Ti7     Er47    10.0   .     S
Ti7     Er23    10.0   .     S
Ti8     Er47    10.0   1_556     S
Ti8     Er37    10.0   1_566     S
Ti8     Er23    10.0   1_556     S
Ti8     Er38    10.0   1_565     S
Ti8     Er48    10.0   .     S
Ti8     Er24    10.0   .     S
Ti9     Er22    10.0   .     S
Ti9     Er42    10.0   .     S
Ti9     Er34    10.0   .     S
Ti9     Er41    10.0   .     S
Ti9     Er21    10.0   .     S
Ti9     Er33    10.0   .     S
Ti10     Er21    10.0   1_556     S
Ti10     Er41    10.0   1_556     S
Ti10     Er33    10.0   1_556     S
Ti10     Er42    10.0   .     S
Ti10     Er22    10.0   .     S
Ti10     Er34    10.0   .     S
Ti11     Er24    10.0   .     S
Ti11     Er44    10.0   .     S
Ti11     Er36    10.0   .     S
Ti11     Er43    10.0   .     S
Ti11     Er23    10.0   .     S
Ti11     Er35    10.0   .     S
Ti12     Er23    10.0   1_556     S
Ti12     Er43    10.0   1_556     S
Ti12     Er35    10.0   1_556     S
Ti12     Er44    10.0   .     S
Ti12     Er24    10.0   .     S
Ti12     Er36    10.0   .     S
Ti13     Er18    10.0   1_655     S
Ti13     Er46    10.0   .     S
Ti13     Er38    10.0   .     S
Ti13     Er45    10.0   .     S
Ti13     Er17    10.0   1_655     S
Ti13     Er37    10.0   .     S
Ti14     Er17    10.0   1_656     S
Ti14     Er45    10.0   1_556     S
Ti14     Er37    10.0   1_556     S
Ti14     Er46    10.0   .     S
Ti14     Er18    10.0   1_655     S
Ti14     Er38    10.0   .     S
Ti15     Er20    10.0   .     S
Ti15     Er48    10.0   .     S
Ti15     Er40    10.0   .     S
Ti15     Er47    10.0   .     S
Ti15     Er19    10.0   .     S
Ti15     Er39    10.0   .     S
Ti16     Er19    10.0   1_556     S
Ti16     Er47    10.0   1_556     S
Ti16     Er39    10.0   1_556     S
Ti16     Er48    10.0   .     S
Ti16     Er20    10.0   .     S
Ti16     Er40    10.0   .     S
Er17     Ti2    10.0   1_554     S
Er17     Ti14    10.0   1_454     S
Er17     Ti13    10.0   1_455     S
Er17     V27    10.0   .     S
Er17     V25    10.0   .     S
Er18     Ti13    10.0   1_455     S
Er18     Ti14    10.0   1_455     S
Er18     V28    10.0   .     S
Er18     V26    10.0   .     S
Er19     Ti4    10.0   1_654     S
Er19     Ti3    10.0   1_655     S
Er19     Ti16    10.0   1_554     S
Er19     V25    10.0   1_665     S
Er19     V27    10.0   1_655     S
Er20     Ti3    10.0   1_655     S
Er20     Ti4    10.0   1_655     S
Er20     V26    10.0   1_665     S
Er20     V28    10.0   1_655     S
Er21     Ti6    10.0   1_554     S
Er21     Ti10    10.0   1_554     S
Er21     V31    10.0   .     S
Er21     V29    10.0   .     S
Er22     V32    10.0   .     S
Er22     V30    10.0   .     S
Er23     Ti8    10.0   1_554     S
Er23     Ti12    10.0   1_554     S
Er23     V29    10.0   1_565     S
Er23     V31    10.0   .     S
Er24     V30    10.0   1_565     S
Er24     V32    10.0   .     S
V25     Er19    10.0   1_445     S
V25     Er37    10.0   1_455     S
V25     Er47    10.0   1_445     S
V25     Er33    10.0   .     S
V25     Er41    10.0   .     S
V26     Er20    10.0   1_445     S
V26     Er38    10.0   1_455     S
V26     Er48    10.0   1_445     S
V26     Er34    10.0   .     S
V26     Er42    10.0   .     S
V27     Er19    10.0   1_455     S
V27     Er39    10.0   1_455     S
V27     Er45    10.0   1_455     S
V27     Er35    10.0   .     S
V27     Er43    10.0   .     S
V28     Er20    10.0   1_455     S
V28     Er40    10.0   1_455     S
V28     Er46    10.0   1_455     S
V28     Er36    10.0   .     S
V28     Er44    10.0   .     S
V29     Er23    10.0   1_545     S
V29     Er33    10.0   .     S
V29     Er43    10.0   1_545     S
V29     Er37    10.0   .     S
V29     Er45    10.0   .     S
V30     Er24    10.0   1_545     S
V30     Er34    10.0   .     S
V30     Er44    10.0   1_545     S
V30     Er38    10.0   .     S
V30     Er46    10.0   .     S
V31     Er35    10.0   .     S
V31     Er41    10.0   .     S
V31     Er39    10.0   .     S
V31     Er47    10.0   .     S
V32     Er36    10.0   .     S
V32     Er42    10.0   .     S
V32     Er40    10.0   .     S
V32     Er48    10.0   .     S
Er33     Ti4    10.0   1_544     S
Er33     Ti3    10.0   1_545     S
Er33     Ti10    10.0   1_554     S
Er34     Ti3    10.0   1_545     S
Er34     Ti4    10.0   1_545     S
Er35     Ti2    10.0   1_554     S
Er35     Ti12    10.0   1_554     S
Er37     Ti8    10.0   1_544     S
Er37     Ti7    10.0   1_545     S
Er37     Ti14    10.0   1_554     S
Er37     V25    10.0   1_655     S
Er38     Ti7    10.0   1_545     S
Er38     Ti8    10.0   1_545     S
Er38     V26    10.0   1_655     S
Er39     Ti6    10.0   1_554     S
Er39     Ti16    10.0   1_554     S
Er39     V27    10.0   1_655     S
Er40     V28    10.0   1_655     S
Er41     Ti2    10.0   1_554     S
Er41     Ti10    10.0   1_554     S
Er43     Ti4    10.0   1_554     S
Er43     Ti12    10.0   1_554     S
Er43     V29    10.0   1_565     S
Er44     V30    10.0   1_565     S
Er45     Ti6    10.0   1_554     S
Er45     Ti14    10.0   1_554     S
Er45     V27    10.0   1_655     S
Er46     V28    10.0   1_655     S
Er47     Ti8    10.0   1_554     S
Er47     Ti16    10.0   1_554     S
Er47     V25    10.0   1_665     S
Er48     V26    10.0   1_665     S
