data_std
_audit_creation_date              2019-12-31
_audit_creation_method            'Pymatgen'
_symmetry_space_group_name_H-M    'P1'
_symmetry_Int_Tables_number       1
loop_
_symmetry_equiv_pos_as_xyz
  x,y,z
_cell_length_a                    28.2854
_cell_length_b                    28.2854
_cell_length_c                    46.1842
_cell_angle_alpha                 90.0
_cell_angle_beta                 90.0
_cell_angle_gamma                 120.0
loop_
_atom_site_label
_atom_site_type_symbol
_atom_site_fract_x
_atom_site_fract_y
_atom_site_fract_z
Er1     Er     0.1667   0.3333   0.625
Er2     Er     0.1667   0.8333   0.625
Er3     Er     0.6667   0.3333   0.625
Er4     Er     0.6667   0.8333   0.625
Er5     Er     0.1667   0.3333   0.875
Er6     Er     0.1667   0.8333   0.875
Er7     Er     0.6667   0.3333   0.875
Er8     Er     0.6667   0.8333   0.875
V9     V     0.0   0.0   0.75
V10     V     1.0   0.5   0.75
V11     V     0.5   0.0   0.75
V12     V     0.5   0.5   0.75
Er13     Er     0.3333   0.1667   0.375
Er14     Er     0.3333   0.6667   0.375
Er15     Er     0.8333   0.1667   0.375
Er16     Er     0.8333   0.6667   0.375
Er17     Er     0.3333   0.1667   0.125
Er18     Er     0.3333   0.6667   0.125
Er19     Er     0.8333   0.1667   0.125
Er20     Er     0.8333   0.6667   0.125
V21     V     0.0   0.0   0.25
V22     V     1.0   0.5   0.25
V23     V     0.5   0.0   0.25
V24     V     0.5   0.5   0.25
Ti25     Ti     0.0   0.0   0.0
Ti26     Ti     1.0   0.5   0.0
Ti27     Ti     0.5   0.0   0.0
Ti28     Ti     0.5   0.5   0.0
Ti29     Ti     0.0   0.0   0.5
Ti30     Ti     1.0   0.5   0.5
Ti31     Ti     0.5   0.0   0.5
Ti32     Ti     0.5   0.5   0.5
loop_
_geom_bond_atom_site_label_1
_geom_bond_atom_site_label_2
_geom_bond_distance
_geom_bond_site_symmetry_2
_ccdc_geom_bond_type
Er1     V10    10.0   1_455     S
Er1     Ti30    10.0   1_455     S
Er1     Ti32    10.0   .     S
Er1     V12    10.0   .     S
Er1     Ti29    10.0   .     S
Er1     V9    10.0   .     S
Er2     V9    10.0   1_565     S
Er2     Ti29    10.0   1_565     S
Er2     Ti31    10.0   1_565     S
Er2     V11    10.0   1_565     S
Er2     Ti30    10.0   1_455     S
Er2     V10    10.0   1_455     S
Er3     V12    10.0   .     S
Er3     Ti32    10.0   .     S
Er3     Ti30    10.0   .     S
Er3     V10    10.0   .     S
Er3     Ti31    10.0   .     S
Er3     V11    10.0   .     S
Er4     V11    10.0   1_565     S
Er4     Ti31    10.0   1_565     S
Er4     Ti29    10.0   1_665     S
Er4     V9    10.0   1_665     S
Er4     Ti32    10.0   .     S
Er4     V12    10.0   .     S
Er5     V9    10.0   .     S
Er5     V10    10.0   1_455     S
Er5     Ti26    10.0   1_456     S
Er5     Ti28    10.0   1_556     S
Er5     V12    10.0   .     S
Er5     Ti25    10.0   1_556     S
Er6     V10    10.0   1_455     S
Er6     V9    10.0   1_565     S
Er6     Ti25    10.0   1_566     S
Er6     Ti27    10.0   1_566     S
Er6     V11    10.0   1_565     S
Er6     Ti26    10.0   1_456     S
Er7     V11    10.0   .     S
Er7     V12    10.0   .     S
Er7     Ti28    10.0   1_556     S
Er7     Ti26    10.0   1_556     S
Er7     V10    10.0   .     S
Er7     Ti27    10.0   1_556     S
Er8     V12    10.0   .     S
Er8     V11    10.0   1_565     S
Er8     Ti27    10.0   1_566     S
Er8     Ti25    10.0   1_666     S
Er8     V9    10.0   1_665     S
Er8     Ti28    10.0   1_556     S
V9     Er2    10.0   1_545     S
V9     Er4    10.0   1_445     S
V9     Er6    10.0   1_545     S
V9     Er8    10.0   1_445     S
V10     Er6    10.0   1_655     S
V10     Er1    10.0   1_655     S
V10     Er2    10.0   1_655     S
V10     Er5    10.0   1_655     S
V11     Er4    10.0   1_545     S
V11     Er2    10.0   1_545     S
V11     Er8    10.0   1_545     S
V11     Er6    10.0   1_545     S
Er13     V21    10.0   .     S
Er13     Ti31    10.0   .     S
Er13     Ti32    10.0   .     S
Er13     V23    10.0   .     S
Er13     Ti29    10.0   .     S
Er13     V24    10.0   .     S
Er14     V22    10.0   1_455     S
Er14     Ti32    10.0   .     S
Er14     Ti31    10.0   1_565     S
Er14     V24    10.0   .     S
Er14     Ti30    10.0   1_455     S
Er14     V23    10.0   1_565     S
Er15     V23    10.0   .     S
Er15     Ti29    10.0   1_655     S
Er15     Ti30    10.0   .     S
Er15     V21    10.0   1_655     S
Er15     Ti31    10.0   .     S
Er15     V22    10.0   .     S
Er16     V24    10.0   .     S
Er16     Ti30    10.0   .     S
Er16     Ti29    10.0   1_665     S
Er16     V22    10.0   .     S
Er16     Ti32    10.0   .     S
Er16     V21    10.0   1_665     S
Er17     V21    10.0   .     S
Er17     Ti27    10.0   .     S
Er17     Ti28    10.0   .     S
Er17     V23    10.0   .     S
Er17     V24    10.0   .     S
Er17     Ti25    10.0   .     S
Er18     V22    10.0   1_455     S
Er18     Ti28    10.0   .     S
Er18     Ti27    10.0   1_565     S
Er18     V24    10.0   .     S
Er18     V23    10.0   1_565     S
Er18     Ti26    10.0   1_455     S
Er19     V23    10.0   .     S
Er19     Ti25    10.0   1_655     S
Er19     Ti26    10.0   .     S
Er19     V21    10.0   1_655     S
Er19     V22    10.0   .     S
Er19     Ti27    10.0   .     S
Er20     V24    10.0   .     S
Er20     Ti26    10.0   .     S
Er20     Ti25    10.0   1_665     S
Er20     V22    10.0   .     S
Er20     V21    10.0   1_665     S
Er20     Ti28    10.0   .     S
V21     Er15    10.0   1_455     S
V21     Er19    10.0   1_455     S
V21     Er20    10.0   1_445     S
V21     Er16    10.0   1_445     S
V22     Er14    10.0   1_655     S
V22     Er18    10.0   1_655     S
V23     Er18    10.0   1_545     S
V23     Er14    10.0   1_545     S
Ti25     Er6    10.0   1_544     S
Ti25     Er8    10.0   1_444     S
Ti25     Er5    10.0   1_554     S
Ti25     Er19    10.0   1_455     S
Ti25     Er20    10.0   1_445     S
Ti26     Er5    10.0   1_654     S
Ti26     Er7    10.0   1_554     S
Ti26     Er6    10.0   1_654     S
Ti26     Er18    10.0   1_655     S
Ti27     Er8    10.0   1_544     S
Ti27     Er6    10.0   1_544     S
Ti27     Er7    10.0   1_554     S
Ti27     Er18    10.0   1_545     S
Ti28     Er7    10.0   1_554     S
Ti28     Er5    10.0   1_554     S
Ti28     Er8    10.0   1_554     S
Ti29     Er2    10.0   1_545     S
Ti29     Er4    10.0   1_445     S
Ti29     Er15    10.0   1_455     S
Ti29     Er16    10.0   1_445     S
Ti30     Er1    10.0   1_655     S
Ti30     Er2    10.0   1_655     S
Ti30     Er14    10.0   1_655     S
Ti31     Er4    10.0   1_545     S
Ti31     Er2    10.0   1_545     S
Ti31     Er14    10.0   1_545     S
