data_sxc
_audit_creation_date              2019-12-31
_audit_creation_method            'Pymatgen'
_symmetry_space_group_name_H-M    'P1'
_symmetry_Int_Tables_number       1
loop_
_symmetry_equiv_pos_as_xyz
  x,y,z
_cell_length_a                    30.0
_cell_length_b                    30.0
_cell_length_c                    30.0
_cell_angle_alpha                 90.0
_cell_angle_beta                 90.0
_cell_angle_gamma                 120.0
loop_
_atom_site_label
_atom_site_type_symbol
_atom_site_fract_x
_atom_site_fract_y
_atom_site_fract_z
V1     V     0.0   0.0   0.3333
V2     V     1.0   0.3333   0.3333
V3     V     1.0   0.6667   0.3333
V4     V     0.3333   0.0   0.3333
V5     V     0.3333   0.3333   0.3333
V6     V     0.3333   0.6667   0.3333
V7     V     0.6667   0.0   0.3333
V8     V     0.6667   0.3333   0.3333
V9     V     0.6667   0.6667   0.3333
V10     V     0.0   0.0   0.0
V11     V     1.0   0.3333   0.0
V12     V     1.0   0.6667   0.0
V13     V     0.3333   0.0   0.0
V14     V     0.3333   0.3333   0.0
V15     V     0.3333   0.6667   0.0
V16     V     0.6667   0.0   0.0
V17     V     0.6667   0.3333   0.0
V18     V     0.6667   0.6667   0.0
V19     V     0.0   0.0   0.6667
V20     V     1.0   0.3333   0.6667
V21     V     1.0   0.6667   0.6667
V22     V     0.3333   0.0   0.6667
V23     V     0.3333   0.3333   0.6667
V24     V     0.3333   0.6667   0.6667
V25     V     0.6667   0.0   0.6667
V26     V     0.6667   0.3333   0.6667
V27     V     0.6667   0.6667   0.6667
loop_
_geom_bond_atom_site_label_1
_geom_bond_atom_site_label_2
_geom_bond_distance
_geom_bond_site_symmetry_2
_ccdc_geom_bond_type
V1     V10    10.0   .     S
V1     V4    10.0   .     S
V1     V7    10.0   1_455     S
V1     V2    10.0   1_455     S
V1     V3    10.0   1_445     S
V1     V19    10.0   .     S
V2     V11    10.0   .     S
V2     V5    10.0   1_655     S
V2     V8    10.0   .     S
V2     V1    10.0   1_655     S
V2     V3    10.0   .     S
V2     V20    10.0   .     S
V3     V12    10.0   .     S
V3     V6    10.0   1_655     S
V3     V9    10.0   .     S
V3     V1    10.0   1_665     S
V3     V21    10.0   .     S
V4     V13    10.0   .     S
V4     V7    10.0   .     S
V4     V5    10.0   .     S
V4     V6    10.0   1_545     S
V4     V22    10.0   .     S
V5     V14    10.0   .     S
V5     V2    10.0   1_455     S
V5     V8    10.0   .     S
V5     V6    10.0   .     S
V5     V23    10.0   .     S
V6     V15    10.0   .     S
V6     V3    10.0   1_455     S
V6     V9    10.0   .     S
V6     V4    10.0   1_565     S
V6     V24    10.0   .     S
V7     V16    10.0   .     S
V7     V1    10.0   1_655     S
V7     V8    10.0   .     S
V7     V9    10.0   1_545     S
V7     V25    10.0   .     S
V8     V17    10.0   .     S
V8     V9    10.0   .     S
V8     V26    10.0   .     S
V9     V18    10.0   .     S
V9     V7    10.0   1_565     S
V9     V27    10.0   .     S
V10     V19    10.0   1_554     S
V10     V11    10.0   1_455     S
V10     V12    10.0   1_445     S
V10     V14    10.0   .     S
V10     V18    10.0   1_445     S
V11     V20    10.0   1_554     S
V11     V10    10.0   1_655     S
V11     V12    10.0   .     S
V11     V15    10.0   1_655     S
V11     V16    10.0   .     S
V12     V21    10.0   1_554     S
V12     V10    10.0   1_665     S
V12     V13    10.0   1_665     S
V12     V17    10.0   .     S
V13     V22    10.0   1_554     S
V13     V14    10.0   .     S
V13     V15    10.0   1_545     S
V13     V12    10.0   1_445     S
V13     V17    10.0   .     S
V14     V23    10.0   1_554     S
V14     V15    10.0   .     S
V14     V18    10.0   .     S
V15     V24    10.0   1_554     S
V15     V13    10.0   1_565     S
V15     V11    10.0   1_455     S
V15     V16    10.0   1_565     S
V16     V25    10.0   1_554     S
V16     V17    10.0   .     S
V16     V18    10.0   1_545     S
V16     V15    10.0   1_545     S
V17     V26    10.0   1_554     S
V17     V18    10.0   .     S
V18     V27    10.0   1_554     S
V18     V16    10.0   1_565     S
V18     V10    10.0   1_665     S
V19     V10    10.0   1_556     S
V19     V22    10.0   .     S
V19     V25    10.0   1_455     S
V19     V23    10.0   .     S
V19     V27    10.0   1_445     S
V20     V11    10.0   1_556     S
V20     V23    10.0   1_655     S
V20     V26    10.0   .     S
V20     V24    10.0   1_655     S
V20     V25    10.0   .     S
V21     V12    10.0   1_556     S
V21     V24    10.0   1_655     S
V21     V27    10.0   .     S
V21     V22    10.0   1_665     S
V21     V26    10.0   .     S
V22     V13    10.0   1_556     S
V22     V25    10.0   .     S
V22     V21    10.0   1_445     S
V22     V26    10.0   .     S
V23     V14    10.0   1_556     S
V23     V20    10.0   1_455     S
V23     V26    10.0   .     S
V23     V27    10.0   .     S
V24     V15    10.0   1_556     S
V24     V21    10.0   1_455     S
V24     V27    10.0   .     S
V24     V20    10.0   1_455     S
V24     V25    10.0   1_565     S
V25     V16    10.0   1_556     S
V25     V19    10.0   1_655     S
V25     V24    10.0   1_545     S
V26     V17    10.0   1_556     S
V27     V18    10.0   1_556     S
V27     V19    10.0   1_665     S
