data_tcf-x
_audit_creation_date              2019-12-31
_audit_creation_method            'Pymatgen'
_symmetry_space_group_name_H-M    'P1'
_symmetry_Int_Tables_number       1
loop_
_symmetry_equiv_pos_as_xyz
  x,y,z
_cell_length_a                    30.2916
_cell_length_b                    32.9766
_cell_length_c                    60.0836
_cell_angle_alpha                 90.0
_cell_angle_beta                 90.0
_cell_angle_gamma                 90.0
loop_
_atom_site_label
_atom_site_type_symbol
_atom_site_fract_x
_atom_site_fract_y
_atom_site_fract_z
V1     V     0.0417   0.3125   0.8119
V2     V     0.0417   0.8125   0.8119
V3     V     0.375   0.3125   0.8119
V4     V     0.375   0.8125   0.8119
V5     V     0.7083   0.3125   0.8119
V6     V     0.7083   0.8125   0.8119
V7     V     0.2083   0.0625   0.8119
V8     V     0.2083   0.5625   0.8119
V9     V     0.5417   0.0625   0.8119
V10     V     0.5417   0.5625   0.8119
V11     V     0.875   0.0625   0.8119
V12     V     0.875   0.5625   0.8119
V13     V     0.2917   0.4375   0.6881
V14     V     0.2917   0.9375   0.6881
V15     V     0.625   0.4375   0.6881
V16     V     0.625   0.9375   0.6881
V17     V     0.9583   0.4375   0.6881
V18     V     0.9583   0.9375   0.6881
V19     V     0.125   0.1875   0.6881
V20     V     0.125   0.6875   0.6881
V21     V     0.4583   0.1875   0.6881
V22     V     0.4583   0.6875   0.6881
V23     V     0.7917   0.1875   0.6881
V24     V     0.7917   0.6875   0.6881
V25     V     0.2083   0.0625   0.4381
V26     V     0.2083   0.5625   0.4381
V27     V     0.5417   0.0625   0.4381
V28     V     0.5417   0.5625   0.4381
V29     V     0.875   0.0625   0.4381
V30     V     0.875   0.5625   0.4381
V31     V     0.2917   0.1875   0.5619
V32     V     0.2917   0.6875   0.5619
V33     V     0.625   0.1875   0.5619
V34     V     0.625   0.6875   0.5619
V35     V     0.9583   0.1875   0.5619
V36     V     0.9583   0.6875   0.5619
V37     V     0.0417   0.3125   0.4381
V38     V     0.0417   0.8125   0.4381
V39     V     0.375   0.3125   0.4381
V40     V     0.375   0.8125   0.4381
V41     V     0.7083   0.3125   0.4381
V42     V     0.7083   0.8125   0.4381
V43     V     0.125   0.4375   0.5619
V44     V     0.125   0.9375   0.5619
V45     V     0.4583   0.4375   0.5619
V46     V     0.4583   0.9375   0.5619
V47     V     0.7917   0.4375   0.5619
V48     V     0.7917   0.9375   0.5619
V49     V     0.2083   0.3125   0.3119
V50     V     0.2083   0.8125   0.3119
V51     V     0.5417   0.3125   0.3119
V52     V     0.5417   0.8125   0.3119
V53     V     0.875   0.3125   0.3119
V54     V     0.875   0.8125   0.3119
V55     V     0.2917   0.1875   0.1881
V56     V     0.2917   0.6875   0.1881
V57     V     0.625   0.1875   0.1881
V58     V     0.625   0.6875   0.1881
V59     V     0.9583   0.1875   0.1881
V60     V     0.9583   0.6875   0.1881
V61     V     0.125   0.4375   0.1881
V62     V     0.125   0.9375   0.1881
V63     V     0.4583   0.4375   0.1881
V64     V     0.4583   0.9375   0.1881
V65     V     0.7917   0.4375   0.1881
V66     V     0.7917   0.9375   0.1881
V67     V     0.0417   0.0625   0.3119
V68     V     0.0417   0.5625   0.3119
V69     V     0.375   0.0625   0.3119
V70     V     0.375   0.5625   0.3119
V71     V     0.7083   0.0625   0.3119
V72     V     0.7083   0.5625   0.3119
V73     V     0.2917   0.4375   0.0619
V74     V     0.2917   0.9375   0.0619
V75     V     0.625   0.4375   0.0619
V76     V     0.625   0.9375   0.0619
V77     V     0.9583   0.4375   0.0619
V78     V     0.9583   0.9375   0.0619
V79     V     0.125   0.1875   0.0619
V80     V     0.125   0.6875   0.0619
V81     V     0.4583   0.1875   0.0619
V82     V     0.4583   0.6875   0.0619
V83     V     0.7917   0.1875   0.0619
V84     V     0.7917   0.6875   0.0619
V85     V     0.0417   0.0625   0.9381
V86     V     0.0417   0.5625   0.9381
V87     V     0.375   0.0625   0.9381
V88     V     0.375   0.5625   0.9381
V89     V     0.7083   0.0625   0.9381
V90     V     0.7083   0.5625   0.9381
V91     V     0.2083   0.3125   0.9381
V92     V     0.2083   0.8125   0.9381
V93     V     0.5417   0.3125   0.9381
V94     V     0.5417   0.8125   0.9381
V95     V     0.875   0.3125   0.9381
V96     V     0.875   0.8125   0.9381
loop_
_geom_bond_atom_site_label_1
_geom_bond_atom_site_label_2
_geom_bond_distance
_geom_bond_site_symmetry_2
_ccdc_geom_bond_type
V1     V7    9.667   .     S
V1     V12    9.667   1_455     S
V1     V11    9.667   1_455     S
V1     V8    9.667   .     S
V1     V3    10.097   .     S
V1     V5    10.097   1_455     S
V1     V19    8.873   .     S
V1     V17    8.873   1_455     S
V1     V85    11.199   .     S
V1     V86    11.199   .     S
V1     V95    9.108   1_455     S
V1     V91    9.108   .     S
V1     V23    11.389   1_455     S
V1     V13    11.389   .     S
V2     V8    9.667   .     S
V2     V11    9.667   1_465     S
V2     V12    9.667   1_455     S
V2     V7    9.667   1_565     S
V2     V4    10.097   .     S
V2     V6    10.097   1_455     S
V2     V20    8.873   .     S
V2     V18    8.873   1_455     S
V2     V86    11.199   .     S
V2     V85    11.199   1_565     S
V2     V96    9.108   1_455     S
V2     V92    9.108   .     S
V2     V24    11.389   1_455     S
V2     V14    11.389   .     S
V3     V9    9.667   .     S
V3     V8    9.667   .     S
V3     V7    9.667   .     S
V3     V10    9.667   .     S
V3     V5    10.097   .     S
V3     V21    8.873   .     S
V3     V13    8.873   .     S
V3     V87    11.199   .     S
V3     V88    11.199   .     S
V3     V91    9.108   .     S
V3     V93    9.108   .     S
V3     V19    11.389   .     S
V3     V15    11.389   .     S
V4     V10    9.667   .     S
V4     V7    9.667   1_565     S
V4     V8    9.667   .     S
V4     V9    9.667   1_565     S
V4     V6    10.097   .     S
V4     V22    8.873   .     S
V4     V14    8.873   .     S
V4     V88    11.199   .     S
V4     V87    11.199   1_565     S
V4     V92    9.108   .     S
V4     V94    9.108   .     S
V4     V20    11.389   .     S
V4     V16    11.389   .     S
V5     V11    9.667   .     S
V5     V10    9.667   .     S
V5     V9    9.667   .     S
V5     V12    9.667   .     S
V5     V1    10.097   1_655     S
V5     V23    8.873   .     S
V5     V15    8.873   .     S
V5     V89    11.199   .     S
V5     V90    11.199   .     S
V5     V93    9.108   .     S
V5     V95    9.108   .     S
V5     V21    11.389   .     S
V5     V17    11.389   .     S
V6     V12    9.667   .     S
V6     V9    9.667   1_565     S
V6     V10    9.667   .     S
V6     V11    9.667   1_565     S
V6     V2    10.097   1_655     S
V6     V24    8.873   .     S
V6     V16    8.873   .     S
V6     V90    11.199   .     S
V6     V89    11.199   1_565     S
V6     V94    9.108   .     S
V6     V96    9.108   .     S
V6     V22    11.389   .     S
V6     V18    11.389   .     S
V7     V4    9.667   1_545     S
V7     V2    9.667   1_545     S
V7     V11    10.097   1_455     S
V7     V9    10.097   .     S
V7     V14    8.873   1_545     S
V7     V19    8.873   .     S
V7     V92    11.199   1_545     S
V7     V91    11.199   .     S
V7     V85    9.108   .     S
V7     V87    9.108   .     S
V7     V18    11.389   1_445     S
V7     V21    11.389   .     S
V8     V12    10.097   1_455     S
V8     V10    10.097   .     S
V8     V13    8.873   .     S
V8     V20    8.873   .     S
V8     V91    11.199   .     S
V8     V92    11.199   .     S
V8     V86    9.108   .     S
V8     V88    9.108   .     S
V8     V17    11.389   1_455     S
V8     V22    11.389   .     S
V9     V6    9.667   1_545     S
V9     V4    9.667   1_545     S
V9     V11    10.097   .     S
V9     V16    8.873   1_545     S
V9     V21    8.873   .     S
V9     V94    11.199   1_545     S
V9     V93    11.199   .     S
V9     V87    9.108   .     S
V9     V89    9.108   .     S
V9     V14    11.389   1_545     S
V9     V23    11.389   .     S
V10     V12    10.097   .     S
V10     V15    8.873   .     S
V10     V22    8.873   .     S
V10     V93    11.199   .     S
V10     V94    11.199   .     S
V10     V88    9.108   .     S
V10     V90    9.108   .     S
V10     V13    11.389   .     S
V10     V24    11.389   .     S
V11     V2    9.667   1_645     S
V11     V1    9.667   1_655     S
V11     V6    9.667   1_545     S
V11     V7    10.097   1_655     S
V11     V18    8.873   1_545     S
V11     V23    8.873   .     S
V11     V96    11.199   1_545     S
V11     V95    11.199   .     S
V11     V89    9.108   .     S
V11     V85    9.108   1_655     S
V11     V16    11.389   1_545     S
V11     V19    11.389   1_655     S
V12     V1    9.667   1_655     S
V12     V2    9.667   1_655     S
V12     V8    10.097   1_655     S
V12     V17    8.873   .     S
V12     V24    8.873   .     S
V12     V95    11.199   .     S
V12     V96    11.199   .     S
V12     V90    9.108   .     S
V12     V86    9.108   1_655     S
V12     V15    11.389   .     S
V12     V20    11.389   1_655     S
V13     V20    9.667   .     S
V13     V21    9.667   .     S
V13     V19    9.667   .     S
V13     V22    9.667   .     S
V13     V17    10.097   1_455     S
V13     V15    10.097   .     S
V13     V32    11.199   .     S
V13     V31    11.199   .     S
V13     V43    9.108   .     S
V13     V45    9.108   .     S
V14     V19    9.667   1_565     S
V14     V22    9.667   .     S
V14     V20    9.667   .     S
V14     V21    9.667   1_565     S
V14     V18    10.097   1_455     S
V14     V16    10.097   .     S
V14     V7    8.873   1_565     S
V14     V31    11.199   1_565     S
V14     V32    11.199   .     S
V14     V44    9.108   .     S
V14     V46    9.108   .     S
V14     V9    11.389   1_565     S
V15     V22    9.667   .     S
V15     V23    9.667   .     S
V15     V21    9.667   .     S
V15     V24    9.667   .     S
V15     V17    10.097   .     S
V15     V34    11.199   .     S
V15     V33    11.199   .     S
V15     V45    9.108   .     S
V15     V47    9.108   .     S
V16     V21    9.667   1_565     S
V16     V24    9.667   .     S
V16     V22    9.667   .     S
V16     V23    9.667   1_565     S
V16     V18    10.097   .     S
V16     V9    8.873   1_565     S
V16     V33    11.199   1_565     S
V16     V34    11.199   .     S
V16     V46    9.108   .     S
V16     V48    9.108   .     S
V16     V11    11.389   1_565     S
V17     V24    9.667   .     S
V17     V19    9.667   1_655     S
V17     V23    9.667   .     S
V17     V20    9.667   1_655     S
V17     V13    10.097   1_655     S
V17     V1    8.873   1_655     S
V17     V36    11.199   .     S
V17     V35    11.199   .     S
V17     V47    9.108   .     S
V17     V43    9.108   1_655     S
V17     V8    11.389   1_655     S
V18     V23    9.667   1_565     S
V18     V20    9.667   1_655     S
V18     V24    9.667   .     S
V18     V19    9.667   1_665     S
V18     V14    10.097   1_655     S
V18     V2    8.873   1_655     S
V18     V11    8.873   1_565     S
V18     V35    11.199   1_565     S
V18     V36    11.199   .     S
V18     V48    9.108   .     S
V18     V44    9.108   1_655     S
V18     V7    11.389   1_665     S
V19     V14    9.667   1_545     S
V19     V17    9.667   1_455     S
V19     V18    9.667   1_445     S
V19     V21    10.097   .     S
V19     V23    10.097   1_455     S
V19     V43    11.199   .     S
V19     V44    11.199   1_545     S
V19     V35    9.108   1_455     S
V19     V31    9.108   .     S
V19     V11    11.389   1_455     S
V20     V18    9.667   1_455     S
V20     V17    9.667   1_455     S
V20     V22    10.097   .     S
V20     V24    10.097   1_455     S
V20     V44    11.199   .     S
V20     V43    11.199   .     S
V20     V36    9.108   1_455     S
V20     V32    9.108   .     S
V20     V12    11.389   1_455     S
V21     V16    9.667   1_545     S
V21     V14    9.667   1_545     S
V21     V23    10.097   .     S
V21     V45    11.199   .     S
V21     V46    11.199   1_545     S
V21     V31    9.108   .     S
V21     V33    9.108   .     S
V22     V24    10.097   .     S
V22     V46    11.199   .     S
V22     V45    11.199   .     S
V22     V32    9.108   .     S
V22     V34    9.108   .     S
V23     V18    9.667   1_545     S
V23     V16    9.667   1_545     S
V23     V19    10.097   1_655     S
V23     V47    11.199   .     S
V23     V48    11.199   1_545     S
V23     V33    9.108   .     S
V23     V35    9.108   .     S
V23     V1    11.389   1_655     S
V24     V20    10.097   1_655     S
V24     V48    11.199   .     S
V24     V47    11.199   .     S
V24     V34    9.108   .     S
V24     V36    9.108   .     S
V24     V2    11.389   1_655     S
V25     V38    9.667   1_545     S
V25     V39    9.667   .     S
V25     V40    9.667   1_545     S
V25     V37    9.667   .     S
V25     V29    10.097   1_455     S
V25     V27    10.097   .     S
V25     V31    8.873   .     S
V25     V44    8.873   1_545     S
V25     V49    11.199   .     S
V25     V50    11.199   1_545     S
V25     V67    9.108   .     S
V25     V69    9.108   .     S
V25     V35    11.389   1_455     S
V25     V46    11.389   1_545     S
V26     V37    9.667   .     S
V26     V40    9.667   .     S
V26     V39    9.667   .     S
V26     V38    9.667   .     S
V26     V30    10.097   1_455     S
V26     V28    10.097   .     S
V26     V32    8.873   .     S
V26     V43    8.873   .     S
V26     V50    11.199   .     S
V26     V49    11.199   .     S
V26     V68    9.108   .     S
V26     V70    9.108   .     S
V26     V36    11.389   1_455     S
V26     V45    11.389   .     S
V27     V40    9.667   1_545     S
V27     V41    9.667   .     S
V27     V42    9.667   1_545     S
V27     V39    9.667   .     S
V27     V29    10.097   .     S
V27     V33    8.873   .     S
V27     V46    8.873   1_545     S
V27     V51    11.199   .     S
V27     V52    11.199   1_545     S
V27     V69    9.108   .     S
V27     V71    9.108   .     S
V27     V31    11.389   .     S
V27     V48    11.389   1_545     S
V28     V39    9.667   .     S
V28     V42    9.667   .     S
V28     V41    9.667   .     S
V28     V40    9.667   .     S
V28     V30    10.097   .     S
V28     V34    8.873   .     S
V28     V45    8.873   .     S
V28     V52    11.199   .     S
V28     V51    11.199   .     S
V28     V70    9.108   .     S
V28     V72    9.108   .     S
V28     V32    11.389   .     S
V28     V47    11.389   .     S
V29     V42    9.667   1_545     S
V29     V37    9.667   1_655     S
V29     V38    9.667   1_645     S
V29     V41    9.667   .     S
V29     V25    10.097   1_655     S
V29     V35    8.873   .     S
V29     V48    8.873   1_545     S
V29     V53    11.199   .     S
V29     V54    11.199   1_545     S
V29     V71    9.108   .     S
V29     V67    9.108   1_655     S
V29     V33    11.389   .     S
V29     V44    11.389   1_645     S
V30     V41    9.667   .     S
V30     V38    9.667   1_655     S
V30     V37    9.667   1_655     S
V30     V42    9.667   .     S
V30     V26    10.097   1_655     S
V30     V36    8.873   .     S
V30     V47    8.873   .     S
V30     V54    11.199   .     S
V30     V53    11.199   .     S
V30     V72    9.108   .     S
V30     V68    9.108   1_655     S
V30     V34    11.389   .     S
V30     V43    11.389   1_655     S
V31     V44    9.667   1_545     S
V31     V45    9.667   .     S
V31     V43    9.667   .     S
V31     V46    9.667   1_545     S
V31     V35    10.097   1_455     S
V31     V33    10.097   .     S
V31     V39    8.873   .     S
V31     V14    11.199   1_545     S
V31     V37    11.389   .     S
V32     V43    9.667   .     S
V32     V46    9.667   .     S
V32     V44    9.667   .     S
V32     V45    9.667   .     S
V32     V36    10.097   1_455     S
V32     V34    10.097   .     S
V32     V40    8.873   .     S
V32     V38    11.389   .     S
V33     V46    9.667   1_545     S
V33     V47    9.667   .     S
V33     V45    9.667   .     S
V33     V48    9.667   1_545     S
V33     V35    10.097   .     S
V33     V41    8.873   .     S
V33     V16    11.199   1_545     S
V33     V39    11.389   .     S
V34     V45    9.667   .     S
V34     V48    9.667   .     S
V34     V46    9.667   .     S
V34     V47    9.667   .     S
V34     V36    10.097   .     S
V34     V42    8.873   .     S
V34     V40    11.389   .     S
V35     V48    9.667   1_545     S
V35     V43    9.667   1_655     S
V35     V47    9.667   .     S
V35     V44    9.667   1_645     S
V35     V31    10.097   1_655     S
V35     V37    8.873   1_655     S
V35     V18    11.199   1_545     S
V35     V19    9.108   1_655     S
V35     V41    11.389   .     S
V35     V25    11.389   1_655     S
V36     V47    9.667   .     S
V36     V44    9.667   1_655     S
V36     V48    9.667   .     S
V36     V43    9.667   1_655     S
V36     V32    10.097   1_655     S
V36     V38    8.873   1_655     S
V36     V20    9.108   1_655     S
V36     V42    11.389   .     S
V36     V26    11.389   1_655     S
V37     V29    9.667   1_455     S
V37     V30    9.667   1_455     S
V37     V39    10.097   .     S
V37     V41    10.097   1_455     S
V37     V35    8.873   1_455     S
V37     V43    8.873   .     S
V37     V68    11.199   .     S
V37     V67    11.199   .     S
V37     V49    9.108   .     S
V37     V53    9.108   1_455     S
V37     V47    11.389   1_455     S
V38     V25    9.667   1_565     S
V38     V30    9.667   1_455     S
V38     V29    9.667   1_465     S
V38     V40    10.097   .     S
V38     V42    10.097   1_455     S
V38     V36    8.873   1_455     S
V38     V44    8.873   .     S
V38     V67    11.199   1_565     S
V38     V68    11.199   .     S
V38     V50    9.108   .     S
V38     V54    9.108   1_455     S
V38     V48    11.389   1_455     S
V39     V41    10.097   .     S
V39     V45    8.873   .     S
V39     V70    11.199   .     S
V39     V69    11.199   .     S
V39     V51    9.108   .     S
V39     V49    9.108   .     S
V39     V43    11.389   .     S
V40     V27    9.667   1_565     S
V40     V25    9.667   1_565     S
V40     V42    10.097   .     S
V40     V46    8.873   .     S
V40     V69    11.199   1_565     S
V40     V70    11.199   .     S
V40     V52    9.108   .     S
V40     V50    9.108   .     S
V40     V44    11.389   .     S
V41     V37    10.097   1_655     S
V41     V47    8.873   .     S
V41     V72    11.199   .     S
V41     V71    11.199   .     S
V41     V53    9.108   .     S
V41     V51    9.108   .     S
V41     V45    11.389   .     S
V42     V29    9.667   1_565     S
V42     V27    9.667   1_565     S
V42     V38    10.097   1_655     S
V42     V48    8.873   .     S
V42     V71    11.199   1_565     S
V42     V72    11.199   .     S
V42     V54    9.108   .     S
V42     V52    9.108   .     S
V42     V46    11.389   .     S
V43     V35    9.667   1_455     S
V43     V36    9.667   1_455     S
V43     V45    10.097   .     S
V43     V47    10.097   1_455     S
V43     V17    9.108   1_455     S
V43     V30    11.389   1_455     S
V44     V31    9.667   1_565     S
V44     V36    9.667   1_455     S
V44     V35    9.667   1_465     S
V44     V46    10.097   .     S
V44     V48    10.097   1_455     S
V44     V25    8.873   1_565     S
V44     V19    11.199   1_565     S
V44     V18    9.108   1_455     S
V44     V29    11.389   1_465     S
V45     V47    10.097   .     S
V46     V33    9.667   1_565     S
V46     V31    9.667   1_565     S
V46     V48    10.097   .     S
V46     V27    8.873   1_565     S
V46     V21    11.199   1_565     S
V46     V25    11.389   1_565     S
V47     V43    10.097   1_655     S
V47     V37    11.389   1_655     S
V48     V35    9.667   1_565     S
V48     V33    9.667   1_565     S
V48     V44    10.097   1_655     S
V48     V29    8.873   1_565     S
V48     V23    11.199   1_565     S
V48     V38    11.389   1_655     S
V48     V27    11.389   1_565     S
V49     V70    9.667   .     S
V49     V67    9.667   .     S
V49     V69    9.667   .     S
V49     V68    9.667   .     S
V49     V53    10.097   1_455     S
V49     V51    10.097   .     S
V49     V55    8.873   .     S
V49     V61    8.873   .     S
V49     V63    11.389   .     S
V49     V59    11.389   1_455     S
V50     V69    9.667   1_565     S
V50     V68    9.667   .     S
V50     V70    9.667   .     S
V50     V67    9.667   1_565     S
V50     V54    10.097   1_455     S
V50     V52    10.097   .     S
V50     V56    8.873   .     S
V50     V62    8.873   .     S
V50     V25    11.199   1_565     S
V50     V64    11.389   .     S
V50     V60    11.389   1_455     S
V51     V72    9.667   .     S
V51     V69    9.667   .     S
V51     V71    9.667   .     S
V51     V70    9.667   .     S
V51     V53    10.097   .     S
V51     V57    8.873   .     S
V51     V63    8.873   .     S
V51     V65    11.389   .     S
V51     V55    11.389   .     S
V52     V71    9.667   1_565     S
V52     V70    9.667   .     S
V52     V72    9.667   .     S
V52     V69    9.667   1_565     S
V52     V54    10.097   .     S
V52     V58    8.873   .     S
V52     V64    8.873   .     S
V52     V27    11.199   1_565     S
V52     V66    11.389   .     S
V52     V56    11.389   .     S
V53     V68    9.667   1_655     S
V53     V71    9.667   .     S
V53     V67    9.667   1_655     S
V53     V72    9.667   .     S
V53     V49    10.097   1_655     S
V53     V59    8.873   .     S
V53     V65    8.873   .     S
V53     V37    9.108   1_655     S
V53     V61    11.389   1_655     S
V53     V57    11.389   .     S
V54     V67    9.667   1_665     S
V54     V72    9.667   .     S
V54     V68    9.667   1_655     S
V54     V71    9.667   1_565     S
V54     V50    10.097   1_655     S
V54     V60    8.873   .     S
V54     V66    8.873   .     S
V54     V29    11.199   1_565     S
V54     V38    9.108   1_655     S
V54     V62    11.389   1_655     S
V54     V58    11.389   .     S
V55     V62    9.667   1_545     S
V55     V63    9.667   .     S
V55     V61    9.667   .     S
V55     V64    9.667   1_545     S
V55     V59    10.097   1_455     S
V55     V57    10.097   .     S
V55     V69    8.873   .     S
V55     V73    11.199   .     S
V55     V74    11.199   1_545     S
V55     V79    9.108   .     S
V55     V81    9.108   .     S
V55     V67    11.389   .     S
V56     V61    9.667   .     S
V56     V64    9.667   .     S
V56     V62    9.667   .     S
V56     V63    9.667   .     S
V56     V60    10.097   1_455     S
V56     V58    10.097   .     S
V56     V70    8.873   .     S
V56     V74    11.199   .     S
V56     V73    11.199   .     S
V56     V80    9.108   .     S
V56     V82    9.108   .     S
V56     V68    11.389   .     S
V57     V64    9.667   1_545     S
V57     V65    9.667   .     S
V57     V63    9.667   .     S
V57     V66    9.667   1_545     S
V57     V59    10.097   .     S
V57     V71    8.873   .     S
V57     V75    11.199   .     S
V57     V76    11.199   1_545     S
V57     V81    9.108   .     S
V57     V83    9.108   .     S
V57     V69    11.389   .     S
V58     V63    9.667   .     S
V58     V66    9.667   .     S
V58     V64    9.667   .     S
V58     V65    9.667   .     S
V58     V60    10.097   .     S
V58     V72    8.873   .     S
V58     V76    11.199   .     S
V58     V75    11.199   .     S
V58     V82    9.108   .     S
V58     V84    9.108   .     S
V58     V70    11.389   .     S
V59     V66    9.667   1_545     S
V59     V61    9.667   1_655     S
V59     V65    9.667   .     S
V59     V62    9.667   1_645     S
V59     V55    10.097   1_655     S
V59     V67    8.873   1_655     S
V59     V77    11.199   .     S
V59     V78    11.199   1_545     S
V59     V83    9.108   .     S
V59     V79    9.108   1_655     S
V59     V49    11.389   1_655     S
V59     V71    11.389   .     S
V60     V65    9.667   .     S
V60     V62    9.667   1_655     S
V60     V66    9.667   .     S
V60     V61    9.667   1_655     S
V60     V56    10.097   1_655     S
V60     V68    8.873   1_655     S
V60     V78    11.199   .     S
V60     V77    11.199   .     S
V60     V84    9.108   .     S
V60     V80    9.108   1_655     S
V60     V50    11.389   1_655     S
V60     V72    11.389   .     S
V61     V59    9.667   1_455     S
V61     V60    9.667   1_455     S
V61     V63    10.097   .     S
V61     V65    10.097   1_455     S
V61     V68    8.873   .     S
V61     V80    11.199   .     S
V61     V79    11.199   .     S
V61     V73    9.108   .     S
V61     V77    9.108   1_455     S
V61     V70    11.389   .     S
V61     V53    11.389   1_455     S
V62     V55    9.667   1_565     S
V62     V60    9.667   1_455     S
V62     V59    9.667   1_465     S
V62     V64    10.097   .     S
V62     V66    10.097   1_455     S
V62     V67    8.873   1_565     S
V62     V79    11.199   1_565     S
V62     V80    11.199   .     S
V62     V74    9.108   .     S
V62     V78    9.108   1_455     S
V62     V69    11.389   1_565     S
V62     V54    11.389   1_455     S
V63     V65    10.097   .     S
V63     V70    8.873   .     S
V63     V82    11.199   .     S
V63     V81    11.199   .     S
V63     V75    9.108   .     S
V63     V73    9.108   .     S
V63     V72    11.389   .     S
V64     V57    9.667   1_565     S
V64     V55    9.667   1_565     S
V64     V66    10.097   .     S
V64     V69    8.873   1_565     S
V64     V81    11.199   1_565     S
V64     V82    11.199   .     S
V64     V76    9.108   .     S
V64     V74    9.108   .     S
V64     V71    11.389   1_565     S
V65     V61    10.097   1_655     S
V65     V72    8.873   .     S
V65     V84    11.199   .     S
V65     V83    11.199   .     S
V65     V77    9.108   .     S
V65     V75    9.108   .     S
V65     V68    11.389   1_655     S
V66     V59    9.667   1_565     S
V66     V57    9.667   1_565     S
V66     V62    10.097   1_655     S
V66     V71    8.873   1_565     S
V66     V83    11.199   1_565     S
V66     V84    11.199   .     S
V66     V78    9.108   .     S
V66     V76    9.108   .     S
V66     V67    11.389   1_665     S
V67     V54    9.667   1_445     S
V67     V53    9.667   1_455     S
V67     V50    9.667   1_545     S
V67     V69    10.097   .     S
V67     V71    10.097   1_455     S
V67     V62    8.873   1_545     S
V67     V59    8.873   1_455     S
V67     V38    11.199   1_545     S
V67     V29    9.108   1_455     S
V67     V66    11.389   1_445     S
V68     V53    9.667   1_455     S
V68     V54    9.667   1_455     S
V68     V70    10.097   .     S
V68     V72    10.097   1_455     S
V68     V60    8.873   1_455     S
V68     V30    9.108   1_455     S
V68     V65    11.389   1_455     S
V69     V50    9.667   1_545     S
V69     V52    9.667   1_545     S
V69     V71    10.097   .     S
V69     V64    8.873   1_545     S
V69     V40    11.199   1_545     S
V69     V62    11.389   1_545     S
V70     V72    10.097   .     S
V71     V52    9.667   1_545     S
V71     V54    9.667   1_545     S
V71     V67    10.097   1_655     S
V71     V66    8.873   1_545     S
V71     V42    11.199   1_545     S
V71     V64    11.389   1_545     S
V72     V68    10.097   1_655     S
V73     V79    9.667   .     S
V73     V82    9.667   .     S
V73     V80    9.667   .     S
V73     V81    9.667   .     S
V73     V77    10.097   1_455     S
V73     V75    10.097   .     S
V73     V91    8.873   1_554     S
V73     V88    8.873   1_554     S
V73     V86    11.389   1_554     S
V73     V93    11.389   1_554     S
V74     V80    9.667   .     S
V74     V81    9.667   1_565     S
V74     V79    9.667   1_565     S
V74     V82    9.667   .     S
V74     V78    10.097   1_455     S
V74     V76    10.097   .     S
V74     V92    8.873   1_554     S
V74     V87    8.873   1_564     S
V74     V55    11.199   1_565     S
V74     V85    11.389   1_564     S
V74     V94    11.389   1_554     S
V75     V81    9.667   .     S
V75     V84    9.667   .     S
V75     V82    9.667   .     S
V75     V83    9.667   .     S
V75     V77    10.097   .     S
V75     V93    8.873   1_554     S
V75     V90    8.873   1_554     S
V75     V88    11.389   1_554     S
V75     V95    11.389   1_554     S
V76     V82    9.667   .     S
V76     V83    9.667   1_565     S
V76     V81    9.667   1_565     S
V76     V84    9.667   .     S
V76     V78    10.097   .     S
V76     V94    8.873   1_554     S
V76     V89    8.873   1_564     S
V76     V57    11.199   1_565     S
V76     V87    11.389   1_564     S
V76     V96    11.389   1_554     S
V77     V83    9.667   .     S
V77     V80    9.667   1_655     S
V77     V84    9.667   .     S
V77     V79    9.667   1_655     S
V77     V73    10.097   1_655     S
V77     V95    8.873   1_554     S
V77     V86    8.873   1_654     S
V77     V61    9.108   1_655     S
V77     V90    11.389   1_554     S
V77     V91    11.389   1_654     S
V78     V84    9.667   .     S
V78     V79    9.667   1_665     S
V78     V83    9.667   1_565     S
V78     V80    9.667   1_655     S
V78     V74    10.097   1_655     S
V78     V96    8.873   1_554     S
V78     V85    8.873   1_664     S
V78     V59    11.199   1_565     S
V78     V62    9.108   1_655     S
V78     V89    11.389   1_564     S
V78     V92    11.389   1_654     S
V79     V78    9.667   1_445     S
V79     V74    9.667   1_545     S
V79     V77    9.667   1_455     S
V79     V81    10.097   .     S
V79     V83    10.097   1_455     S
V79     V91    8.873   1_554     S
V79     V85    8.873   1_554     S
V79     V62    11.199   1_545     S
V79     V59    9.108   1_455     S
V79     V87    11.389   1_554     S
V79     V95    11.389   1_454     S
V80     V77    9.667   1_455     S
V80     V78    9.667   1_455     S
V80     V82    10.097   .     S
V80     V84    10.097   1_455     S
V80     V92    8.873   1_554     S
V80     V86    8.873   1_554     S
V80     V60    9.108   1_455     S
V80     V88    11.389   1_554     S
V80     V96    11.389   1_454     S
V81     V74    9.667   1_545     S
V81     V76    9.667   1_545     S
V81     V83    10.097   .     S
V81     V93    8.873   1_554     S
V81     V87    8.873   1_554     S
V81     V64    11.199   1_545     S
V81     V89    11.389   1_554     S
V81     V91    11.389   1_554     S
V82     V84    10.097   .     S
V82     V94    8.873   1_554     S
V82     V88    8.873   1_554     S
V82     V90    11.389   1_554     S
V82     V92    11.389   1_554     S
V83     V76    9.667   1_545     S
V83     V78    9.667   1_545     S
V83     V79    10.097   1_655     S
V83     V95    8.873   1_554     S
V83     V89    8.873   1_554     S
V83     V66    11.199   1_545     S
V83     V85    11.389   1_654     S
V83     V93    11.389   1_554     S
V84     V80    10.097   1_655     S
V84     V96    8.873   1_554     S
V84     V90    8.873   1_554     S
V84     V86    11.389   1_654     S
V84     V94    11.389   1_554     S
V85     V91    9.667   .     S
V85     V96    9.667   1_445     S
V85     V92    9.667   1_545     S
V85     V95    9.667   1_455     S
V85     V87    10.097   .     S
V85     V89    10.097   1_455     S
V85     V78    8.873   1_446     S
V85     V79    8.873   1_556     S
V85     V2    11.199   1_545     S
V85     V11    9.108   1_455     S
V85     V74    11.389   1_546     S
V85     V83    11.389   1_456     S
V86     V92    9.667   .     S
V86     V95    9.667   1_455     S
V86     V91    9.667   .     S
V86     V96    9.667   1_455     S
V86     V88    10.097   .     S
V86     V90    10.097   1_455     S
V86     V77    8.873   1_456     S
V86     V80    8.873   1_556     S
V86     V12    9.108   1_455     S
V86     V73    11.389   1_556     S
V86     V84    11.389   1_456     S
V87     V93    9.667   .     S
V87     V92    9.667   1_545     S
V87     V94    9.667   1_545     S
V87     V91    9.667   .     S
V87     V89    10.097   .     S
V87     V74    8.873   1_546     S
V87     V81    8.873   1_556     S
V87     V4    11.199   1_545     S
V87     V76    11.389   1_546     S
V87     V79    11.389   1_556     S
V88     V94    9.667   .     S
V88     V91    9.667   .     S
V88     V93    9.667   .     S
V88     V92    9.667   .     S
V88     V90    10.097   .     S
V88     V73    8.873   1_556     S
V88     V82    8.873   1_556     S
V88     V75    11.389   1_556     S
V88     V80    11.389   1_556     S
V89     V95    9.667   .     S
V89     V94    9.667   1_545     S
V89     V96    9.667   1_545     S
V89     V93    9.667   .     S
V89     V85    10.097   1_655     S
V89     V76    8.873   1_546     S
V89     V83    8.873   1_556     S
V89     V6    11.199   1_545     S
V89     V78    11.389   1_546     S
V89     V81    11.389   1_556     S
V90     V96    9.667   .     S
V90     V93    9.667   .     S
V90     V95    9.667   .     S
V90     V94    9.667   .     S
V90     V86    10.097   1_655     S
V90     V75    8.873   1_556     S
V90     V84    8.873   1_556     S
V90     V77    11.389   1_556     S
V90     V82    11.389   1_556     S
V91     V95    10.097   1_455     S
V91     V93    10.097   .     S
V91     V73    8.873   1_556     S
V91     V79    8.873   1_556     S
V91     V77    11.389   1_456     S
V91     V81    11.389   1_556     S
V92     V87    9.667   1_565     S
V92     V85    9.667   1_565     S
V92     V96    10.097   1_455     S
V92     V94    10.097   .     S
V92     V74    8.873   1_556     S
V92     V80    8.873   1_556     S
V92     V7    11.199   1_565     S
V92     V78    11.389   1_456     S
V92     V82    11.389   1_556     S
V93     V95    10.097   .     S
V93     V75    8.873   1_556     S
V93     V81    8.873   1_556     S
V93     V73    11.389   1_556     S
V93     V83    11.389   1_556     S
V94     V89    9.667   1_565     S
V94     V87    9.667   1_565     S
V94     V96    10.097   .     S
V94     V76    8.873   1_556     S
V94     V82    8.873   1_556     S
V94     V9    11.199   1_565     S
V94     V74    11.389   1_556     S
V94     V84    11.389   1_556     S
V95     V86    9.667   1_655     S
V95     V85    9.667   1_655     S
V95     V91    10.097   1_655     S
V95     V77    8.873   1_556     S
V95     V83    8.873   1_556     S
V95     V1    9.108   1_655     S
V95     V75    11.389   1_556     S
V95     V79    11.389   1_656     S
V96     V85    9.667   1_665     S
V96     V89    9.667   1_565     S
V96     V86    9.667   1_655     S
V96     V92    10.097   1_655     S
V96     V78    8.873   1_556     S
V96     V84    8.873   1_556     S
V96     V11    11.199   1_565     S
V96     V2    9.108   1_655     S
V96     V76    11.389   1_556     S
V96     V80    11.389   1_656     S
