data_tcm
_audit_creation_date              2019-12-31
_audit_creation_method            'Pymatgen'
_symmetry_space_group_name_H-M    'P1'
_symmetry_Int_Tables_number       1
loop_
_symmetry_equiv_pos_as_xyz
  x,y,z
_cell_length_a                    30.0
_cell_length_b                    30.0
_cell_length_c                    97.9805
_cell_angle_alpha                 90.0
_cell_angle_beta                 90.0
_cell_angle_gamma                 120.0
loop_
_atom_site_label
_atom_site_type_symbol
_atom_site_fract_x
_atom_site_fract_y
_atom_site_fract_z
Er1     Er     0.1111   0.2222   0.7917
Er2     Er     0.1111   0.5556   0.7917
Er3     Er     0.1111   0.8889   0.7917
Er4     Er     0.4444   0.2222   0.7917
Er5     Er     0.4444   0.5556   0.7917
Er6     Er     0.4444   0.8889   0.7917
Er7     Er     0.7778   0.2222   0.7917
Er8     Er     0.7778   0.5556   0.7917
Er9     Er     0.7778   0.8889   0.7917
Er10     Er     0.0   0.0   0.875
Er11     Er     1.0   0.3333   0.875
Er12     Er     1.0   0.6667   0.875
Er13     Er     0.3333   0.0   0.875
Er14     Er     0.3333   0.3333   0.875
Er15     Er     0.3333   0.6667   0.875
Er16     Er     0.6667   0.0   0.875
Er17     Er     0.6667   0.3333   0.875
Er18     Er     0.6667   0.6667   0.875
V19     V     0.0   0.0   0.7083
V20     V     1.0   0.3333   0.7083
V21     V     1.0   0.6667   0.7083
V22     V     0.3333   0.0   0.7083
V23     V     0.3333   0.3333   0.7083
V24     V     0.3333   0.6667   0.7083
V25     V     0.6667   0.0   0.7083
V26     V     0.6667   0.3333   0.7083
V27     V     0.6667   0.6667   0.7083
V28     V     0.2222   0.1111   0.625
V29     V     0.2222   0.4444   0.625
V30     V     0.2222   0.7778   0.625
V31     V     0.5556   0.1111   0.625
V32     V     0.5556   0.4444   0.625
V33     V     0.5556   0.7778   0.625
V34     V     0.8889   0.1111   0.625
V35     V     0.8889   0.4444   0.625
V36     V     0.8889   0.7778   0.625
Er37     Er     0.2222   0.1111   0.4583
Er38     Er     0.2222   0.4444   0.4583
Er39     Er     0.2222   0.7778   0.4583
Er40     Er     0.5556   0.1111   0.4583
Er41     Er     0.5556   0.4444   0.4583
Er42     Er     0.5556   0.7778   0.4583
Er43     Er     0.8889   0.1111   0.4583
Er44     Er     0.8889   0.4444   0.4583
Er45     Er     0.8889   0.7778   0.4583
Er46     Er     0.1111   0.2222   0.5417
Er47     Er     0.1111   0.5556   0.5417
Er48     Er     0.1111   0.8889   0.5417
Er49     Er     0.4444   0.2222   0.5417
Er50     Er     0.4444   0.5556   0.5417
Er51     Er     0.4444   0.8889   0.5417
Er52     Er     0.7778   0.2222   0.5417
Er53     Er     0.7778   0.5556   0.5417
Er54     Er     0.7778   0.8889   0.5417
V55     V     0.1111   0.2222   0.375
V56     V     0.1111   0.5556   0.375
V57     V     0.1111   0.8889   0.375
V58     V     0.4444   0.2222   0.375
V59     V     0.4444   0.5556   0.375
V60     V     0.4444   0.8889   0.375
V61     V     0.7778   0.2222   0.375
V62     V     0.7778   0.5556   0.375
V63     V     0.7778   0.8889   0.375
V64     V     0.0   0.0   0.2917
V65     V     1.0   0.3333   0.2917
V66     V     1.0   0.6667   0.2917
V67     V     0.3333   0.0   0.2917
V68     V     0.3333   0.3333   0.2917
V69     V     0.3333   0.6667   0.2917
V70     V     0.6667   0.0   0.2917
V71     V     0.6667   0.3333   0.2917
V72     V     0.6667   0.6667   0.2917
Er73     Er     0.2222   0.1111   0.2083
Er74     Er     0.2222   0.4444   0.2083
Er75     Er     0.2222   0.7778   0.2083
Er76     Er     0.5556   0.1111   0.2083
Er77     Er     0.5556   0.4444   0.2083
Er78     Er     0.5556   0.7778   0.2083
Er79     Er     0.8889   0.1111   0.2083
Er80     Er     0.8889   0.4444   0.2083
Er81     Er     0.8889   0.7778   0.2083
Er82     Er     0.0   0.0   0.125
Er83     Er     1.0   0.3333   0.125
Er84     Er     1.0   0.6667   0.125
Er85     Er     0.3333   0.0   0.125
Er86     Er     0.3333   0.3333   0.125
Er87     Er     0.3333   0.6667   0.125
Er88     Er     0.6667   0.0   0.125
Er89     Er     0.6667   0.3333   0.125
Er90     Er     0.6667   0.6667   0.125
V91     V     0.2222   0.1111   0.0417
V92     V     0.2222   0.4444   0.0417
V93     V     0.2222   0.7778   0.0417
V94     V     0.5556   0.1111   0.0417
V95     V     0.5556   0.4444   0.0417
V96     V     0.5556   0.7778   0.0417
V97     V     0.8889   0.1111   0.0417
V98     V     0.8889   0.4444   0.0417
V99     V     0.8889   0.7778   0.0417
V100     V     0.1111   0.2222   0.9583
V101     V     0.1111   0.5556   0.9583
V102     V     0.1111   0.8889   0.9583
V103     V     0.4444   0.2222   0.9583
V104     V     0.4444   0.5556   0.9583
V105     V     0.4444   0.8889   0.9583
V106     V     0.7778   0.2222   0.9583
V107     V     0.7778   0.5556   0.9583
V108     V     0.7778   0.8889   0.9583
loop_
_geom_bond_atom_site_label_1
_geom_bond_atom_site_label_2
_geom_bond_distance
_geom_bond_site_symmetry_2
_ccdc_geom_bond_type
Er1     Er10    10.0   .     S
Er1     Er3    10.0   1_545     S
Er1     Er2    10.0   .     S
Er1     Er14    10.0   .     S
Er1     Er11    10.0   1_455     S
Er1     Er4    10.0   .     S
Er1     Er7    10.0   1_455     S
Er1     Er5    10.0   .     S
Er1     Er9    10.0   1_445     S
Er1     V19    10.0   .     S
Er1     V20    10.0   1_455     S
Er1     V23    10.0   .     S
Er2     Er11    10.0   1_455     S
Er2     Er3    10.0   .     S
Er2     Er15    10.0   .     S
Er2     Er12    10.0   1_455     S
Er2     Er5    10.0   .     S
Er2     Er8    10.0   1_455     S
Er2     Er6    10.0   .     S
Er2     Er7    10.0   1_455     S
Er2     V20    10.0   1_455     S
Er2     V21    10.0   1_455     S
Er2     V24    10.0   .     S
Er3     Er12    10.0   1_455     S
Er3     Er1    10.0   1_565     S
Er3     Er13    10.0   1_565     S
Er3     Er10    10.0   1_565     S
Er3     Er6    10.0   .     S
Er3     Er9    10.0   1_455     S
Er3     Er4    10.0   1_565     S
Er3     Er8    10.0   1_455     S
Er3     V21    10.0   1_455     S
Er3     V19    10.0   1_565     S
Er3     V22    10.0   1_565     S
Er4     Er13    10.0   .     S
Er4     Er6    10.0   1_545     S
Er4     Er5    10.0   .     S
Er4     Er17    10.0   .     S
Er4     Er14    10.0   .     S
Er4     Er7    10.0   .     S
Er4     Er3    10.0   1_545     S
Er4     Er8    10.0   .     S
Er4     V22    10.0   .     S
Er4     V23    10.0   .     S
Er4     V26    10.0   .     S
Er5     Er14    10.0   .     S
Er5     Er6    10.0   .     S
Er5     Er18    10.0   .     S
Er5     Er15    10.0   .     S
Er5     Er8    10.0   .     S
Er5     Er9    10.0   .     S
Er5     V23    10.0   .     S
Er5     V24    10.0   .     S
Er5     V27    10.0   .     S
Er6     Er15    10.0   .     S
Er6     Er4    10.0   1_565     S
Er6     Er16    10.0   1_565     S
Er6     Er13    10.0   1_565     S
Er6     Er9    10.0   .     S
Er6     Er7    10.0   1_565     S
Er6     V24    10.0   .     S
Er6     V22    10.0   1_565     S
Er6     V25    10.0   1_565     S
Er7     Er16    10.0   .     S
Er7     Er9    10.0   1_545     S
Er7     Er8    10.0   .     S
Er7     Er11    10.0   .     S
Er7     Er17    10.0   .     S
Er7     Er1    10.0   1_655     S
Er7     Er6    10.0   1_545     S
Er7     Er2    10.0   1_655     S
Er7     V25    10.0   .     S
Er7     V26    10.0   .     S
Er7     V20    10.0   .     S
Er8     Er17    10.0   .     S
Er8     Er9    10.0   .     S
Er8     Er12    10.0   .     S
Er8     Er18    10.0   .     S
Er8     Er2    10.0   1_655     S
Er8     Er3    10.0   1_655     S
Er8     V26    10.0   .     S
Er8     V27    10.0   .     S
Er8     V21    10.0   .     S
Er9     Er18    10.0   .     S
Er9     Er7    10.0   1_565     S
Er9     Er10    10.0   1_665     S
Er9     Er16    10.0   1_565     S
Er9     Er3    10.0   1_655     S
Er9     Er1    10.0   1_665     S
Er9     V27    10.0   .     S
Er9     V25    10.0   1_565     S
Er9     V19    10.0   1_665     S
Er10     Er11    10.0   1_455     S
Er10     Er12    10.0   1_445     S
Er10     Er9    10.0   1_445     S
Er10     Er13    10.0   .     S
Er10     Er16    10.0   1_455     S
Er10     Er3    10.0   1_545     S
Er10     Er14    10.0   .     S
Er10     Er18    10.0   1_445     S
Er10     V102    10.0   1_545     S
Er10     V100    10.0   .     S
Er10     V108    10.0   1_445     S
Er11     Er2    10.0   1_655     S
Er11     Er10    10.0   1_655     S
Er11     Er12    10.0   .     S
Er11     Er14    10.0   1_655     S
Er11     Er17    10.0   .     S
Er11     Er1    10.0   1_655     S
Er11     Er15    10.0   1_655     S
Er11     Er16    10.0   .     S
Er11     V100    10.0   1_655     S
Er11     V101    10.0   1_655     S
Er11     V106    10.0   .     S
Er12     Er3    10.0   1_655     S
Er12     Er10    10.0   1_665     S
Er12     Er15    10.0   1_655     S
Er12     Er18    10.0   .     S
Er12     Er2    10.0   1_655     S
Er12     Er13    10.0   1_665     S
Er12     Er17    10.0   .     S
Er12     V101    10.0   1_655     S
Er12     V102    10.0   1_655     S
Er12     V107    10.0   .     S
Er13     Er14    10.0   .     S
Er13     Er15    10.0   1_545     S
Er13     Er3    10.0   1_545     S
Er13     Er16    10.0   .     S
Er13     Er6    10.0   1_545     S
Er13     Er12    10.0   1_445     S
Er13     Er17    10.0   .     S
Er13     V105    10.0   1_545     S
Er13     V103    10.0   .     S
Er13     V102    10.0   1_545     S
Er14     Er15    10.0   .     S
Er14     Er11    10.0   1_455     S
Er14     Er17    10.0   .     S
Er14     Er18    10.0   .     S
Er14     V103    10.0   .     S
Er14     V104    10.0   .     S
Er14     V100    10.0   .     S
Er15     Er13    10.0   1_565     S
Er15     Er12    10.0   1_455     S
Er15     Er18    10.0   .     S
Er15     Er11    10.0   1_455     S
Er15     Er16    10.0   1_565     S
Er15     V104    10.0   .     S
Er15     V105    10.0   .     S
Er15     V101    10.0   .     S
Er16     Er17    10.0   .     S
Er16     Er18    10.0   1_545     S
Er16     Er6    10.0   1_545     S
Er16     Er10    10.0   1_655     S
Er16     Er9    10.0   1_545     S
Er16     Er15    10.0   1_545     S
Er16     V108    10.0   1_545     S
Er16     V106    10.0   .     S
Er16     V105    10.0   1_545     S
Er17     Er18    10.0   .     S
Er17     V106    10.0   .     S
Er17     V107    10.0   .     S
Er17     V103    10.0   .     S
Er18     Er16    10.0   1_565     S
Er18     Er10    10.0   1_665     S
Er18     V107    10.0   .     S
Er18     V108    10.0   .     S
Er18     V104    10.0   .     S
V19     Er3    10.0   1_545     S
V19     Er9    10.0   1_445     S
V19     V36    10.0   1_445     S
V19     V23    10.0   .     S
V19     V27    10.0   1_445     S
V19     V34    10.0   1_455     S
V19     V28    10.0   .     S
V19     V22    10.0   .     S
V19     V25    10.0   1_455     S
V19     V20    10.0   1_455     S
V19     V21    10.0   1_445     S
V20     Er2    10.0   1_655     S
V20     Er1    10.0   1_655     S
V20     V34    10.0   .     S
V20     V24    10.0   1_655     S
V20     V25    10.0   .     S
V20     V35    10.0   .     S
V20     V29    10.0   1_655     S
V20     V23    10.0   1_655     S
V20     V26    10.0   .     S
V20     V19    10.0   1_655     S
V20     V21    10.0   .     S
V21     Er3    10.0   1_655     S
V21     Er2    10.0   1_655     S
V21     V35    10.0   .     S
V21     V22    10.0   1_665     S
V21     V26    10.0   .     S
V21     V36    10.0   .     S
V21     V30    10.0   1_655     S
V21     V24    10.0   1_655     S
V21     V27    10.0   .     S
V21     V19    10.0   1_665     S
V22     Er6    10.0   1_545     S
V22     Er3    10.0   1_545     S
V22     V30    10.0   1_545     S
V22     V21    10.0   1_445     S
V22     V26    10.0   .     S
V22     V28    10.0   .     S
V22     V31    10.0   .     S
V22     V25    10.0   .     S
V22     V23    10.0   .     S
V22     V24    10.0   1_545     S
V23     V28    10.0   .     S
V23     V27    10.0   .     S
V23     V29    10.0   .     S
V23     V32    10.0   .     S
V23     V20    10.0   1_455     S
V23     V26    10.0   .     S
V23     V24    10.0   .     S
V24     V29    10.0   .     S
V24     V20    10.0   1_455     S
V24     V25    10.0   1_565     S
V24     V30    10.0   .     S
V24     V33    10.0   .     S
V24     V21    10.0   1_455     S
V24     V27    10.0   .     S
V24     V22    10.0   1_565     S
V25     Er9    10.0   1_545     S
V25     Er6    10.0   1_545     S
V25     V33    10.0   1_545     S
V25     V24    10.0   1_545     S
V25     V31    10.0   .     S
V25     V34    10.0   .     S
V25     V19    10.0   1_655     S
V25     V26    10.0   .     S
V25     V27    10.0   1_545     S
V26     V31    10.0   .     S
V26     V32    10.0   .     S
V26     V35    10.0   .     S
V26     V27    10.0   .     S
V27     V32    10.0   .     S
V27     V19    10.0   1_665     S
V27     V33    10.0   .     S
V27     V36    10.0   .     S
V27     V25    10.0   1_565     S
V28     V29    10.0   .     S
V28     V30    10.0   1_545     S
V28     V36    10.0   1_445     S
V28     V32    10.0   .     S
V28     V34    10.0   1_455     S
V28     V31    10.0   .     S
V28     Er49    10.0   .     S
V28     Er48    10.0   1_545     S
V28     Er46    10.0   .     S
V29     V20    10.0   1_455     S
V29     V30    10.0   .     S
V29     V34    10.0   1_455     S
V29     V33    10.0   .     S
V29     V35    10.0   1_455     S
V29     V32    10.0   .     S
V29     Er50    10.0   .     S
V29     Er46    10.0   .     S
V29     Er47    10.0   .     S
V30     V22    10.0   1_565     S
V30     V21    10.0   1_455     S
V30     V28    10.0   1_565     S
V30     V35    10.0   1_455     S
V30     V31    10.0   1_565     S
V30     V36    10.0   1_455     S
V30     V33    10.0   .     S
V30     Er51    10.0   .     S
V30     Er47    10.0   .     S
V30     Er48    10.0   .     S
V31     V32    10.0   .     S
V31     V33    10.0   1_545     S
V31     V30    10.0   1_545     S
V31     V35    10.0   .     S
V31     V34    10.0   .     S
V31     Er52    10.0   .     S
V31     Er51    10.0   1_545     S
V31     Er49    10.0   .     S
V32     V33    10.0   .     S
V32     V36    10.0   .     S
V32     V35    10.0   .     S
V32     Er53    10.0   .     S
V32     Er49    10.0   .     S
V32     Er50    10.0   .     S
V33     V25    10.0   1_565     S
V33     V31    10.0   1_565     S
V33     V34    10.0   1_565     S
V33     V36    10.0   .     S
V33     Er54    10.0   .     S
V33     Er50    10.0   .     S
V33     Er51    10.0   .     S
V34     V19    10.0   1_655     S
V34     V35    10.0   .     S
V34     V36    10.0   1_545     S
V34     V29    10.0   1_655     S
V34     V33    10.0   1_545     S
V34     V28    10.0   1_655     S
V34     Er46    10.0   1_655     S
V34     Er54    10.0   1_545     S
V34     Er52    10.0   .     S
V35     V36    10.0   .     S
V35     V30    10.0   1_655     S
V35     V29    10.0   1_655     S
V35     Er47    10.0   1_655     S
V35     Er52    10.0   .     S
V35     Er53    10.0   .     S
V36     V19    10.0   1_665     S
V36     V34    10.0   1_565     S
V36     V28    10.0   1_665     S
V36     V30    10.0   1_655     S
V36     Er48    10.0   1_655     S
V36     Er53    10.0   .     S
V36     Er54    10.0   .     S
Er37     Er49    10.0   .     S
Er37     Er48    10.0   1_545     S
Er37     Er45    10.0   1_445     S
Er37     Er41    10.0   .     S
Er37     Er46    10.0   .     S
Er37     Er38    10.0   .     S
Er37     Er39    10.0   1_545     S
Er37     Er43    10.0   1_455     S
Er37     Er40    10.0   .     S
Er37     V57    10.0   1_545     S
Er37     V58    10.0   .     S
Er37     V55    10.0   .     S
Er38     Er50    10.0   .     S
Er38     Er46    10.0   .     S
Er38     Er43    10.0   1_455     S
Er38     Er42    10.0   .     S
Er38     Er47    10.0   .     S
Er38     Er39    10.0   .     S
Er38     Er44    10.0   1_455     S
Er38     Er41    10.0   .     S
Er38     V55    10.0   .     S
Er38     V59    10.0   .     S
Er38     V56    10.0   .     S
Er39     Er51    10.0   .     S
Er39     Er47    10.0   .     S
Er39     Er44    10.0   1_455     S
Er39     Er40    10.0   1_565     S
Er39     Er48    10.0   .     S
Er39     Er37    10.0   1_565     S
Er39     Er45    10.0   1_455     S
Er39     Er42    10.0   .     S
Er39     V56    10.0   .     S
Er39     V60    10.0   .     S
Er39     V57    10.0   .     S
Er40     Er52    10.0   .     S
Er40     Er51    10.0   1_545     S
Er40     Er39    10.0   1_545     S
Er40     Er44    10.0   .     S
Er40     Er49    10.0   .     S
Er40     Er41    10.0   .     S
Er40     Er42    10.0   1_545     S
Er40     Er43    10.0   .     S
Er40     V60    10.0   1_545     S
Er40     V61    10.0   .     S
Er40     V58    10.0   .     S
Er41     Er53    10.0   .     S
Er41     Er49    10.0   .     S
Er41     Er45    10.0   .     S
Er41     Er50    10.0   .     S
Er41     Er42    10.0   .     S
Er41     Er44    10.0   .     S
Er41     V58    10.0   .     S
Er41     V62    10.0   .     S
Er41     V59    10.0   .     S
Er42     Er54    10.0   .     S
Er42     Er50    10.0   .     S
Er42     Er43    10.0   1_565     S
Er42     Er51    10.0   .     S
Er42     Er40    10.0   1_565     S
Er42     Er45    10.0   .     S
Er42     V59    10.0   .     S
Er42     V63    10.0   .     S
Er42     V60    10.0   .     S
Er43     Er46    10.0   1_655     S
Er43     Er54    10.0   1_545     S
Er43     Er38    10.0   1_655     S
Er43     Er42    10.0   1_545     S
Er43     Er52    10.0   .     S
Er43     Er44    10.0   .     S
Er43     Er45    10.0   1_545     S
Er43     Er37    10.0   1_655     S
Er43     V63    10.0   1_545     S
Er43     V55    10.0   1_655     S
Er43     V61    10.0   .     S
Er44     Er47    10.0   1_655     S
Er44     Er52    10.0   .     S
Er44     Er39    10.0   1_655     S
Er44     Er53    10.0   .     S
Er44     Er45    10.0   .     S
Er44     Er38    10.0   1_655     S
Er44     V61    10.0   .     S
Er44     V56    10.0   1_655     S
Er44     V62    10.0   .     S
Er45     Er48    10.0   1_655     S
Er45     Er53    10.0   .     S
Er45     Er37    10.0   1_665     S
Er45     Er54    10.0   .     S
Er45     Er43    10.0   1_565     S
Er45     Er39    10.0   1_655     S
Er45     V62    10.0   .     S
Er45     V57    10.0   1_655     S
Er45     V63    10.0   .     S
Er46     V34    10.0   1_455     S
Er46     Er43    10.0   1_455     S
Er46     Er50    10.0   .     S
Er46     Er54    10.0   1_445     S
Er46     Er49    10.0   .     S
Er46     Er52    10.0   1_455     S
Er46     Er48    10.0   1_545     S
Er46     Er47    10.0   .     S
Er47     V35    10.0   1_455     S
Er47     Er44    10.0   1_455     S
Er47     Er51    10.0   .     S
Er47     Er52    10.0   1_455     S
Er47     Er50    10.0   .     S
Er47     Er53    10.0   1_455     S
Er47     Er48    10.0   .     S
Er48     V36    10.0   1_455     S
Er48     V28    10.0   1_565     S
Er48     Er45    10.0   1_455     S
Er48     Er37    10.0   1_565     S
Er48     Er49    10.0   1_565     S
Er48     Er53    10.0   1_455     S
Er48     Er51    10.0   .     S
Er48     Er54    10.0   1_455     S
Er48     Er46    10.0   1_565     S
Er49     Er48    10.0   1_545     S
Er49     Er53    10.0   .     S
Er49     Er52    10.0   .     S
Er49     Er51    10.0   1_545     S
Er49     Er50    10.0   .     S
Er50     Er54    10.0   .     S
Er50     Er53    10.0   .     S
Er50     Er51    10.0   .     S
Er51     V31    10.0   1_565     S
Er51     Er40    10.0   1_565     S
Er51     Er52    10.0   1_565     S
Er51     Er54    10.0   .     S
Er51     Er49    10.0   1_565     S
Er52     Er51    10.0   1_545     S
Er52     Er47    10.0   1_655     S
Er52     Er46    10.0   1_655     S
Er52     Er54    10.0   1_545     S
Er52     Er53    10.0   .     S
Er53     Er48    10.0   1_655     S
Er53     Er47    10.0   1_655     S
Er53     Er54    10.0   .     S
Er54     V34    10.0   1_565     S
Er54     Er43    10.0   1_565     S
Er54     Er46    10.0   1_665     S
Er54     Er48    10.0   1_655     S
Er54     Er52    10.0   1_565     S
V55     V64    10.0   .     S
V55     V57    10.0   1_545     S
V55     V56    10.0   .     S
V55     V68    10.0   .     S
V55     V65    10.0   1_455     S
V55     V58    10.0   .     S
V55     V61    10.0   1_455     S
V55     V59    10.0   .     S
V55     V63    10.0   1_445     S
V55     Er43    10.0   1_455     S
V56     V65    10.0   1_455     S
V56     V57    10.0   .     S
V56     V69    10.0   .     S
V56     V66    10.0   1_455     S
V56     V59    10.0   .     S
V56     V62    10.0   1_455     S
V56     V60    10.0   .     S
V56     V61    10.0   1_455     S
V56     Er44    10.0   1_455     S
V57     V66    10.0   1_455     S
V57     V55    10.0   1_565     S
V57     V67    10.0   1_565     S
V57     V64    10.0   1_565     S
V57     V60    10.0   .     S
V57     V63    10.0   1_455     S
V57     V58    10.0   1_565     S
V57     V62    10.0   1_455     S
V57     Er37    10.0   1_565     S
V57     Er45    10.0   1_455     S
V58     V67    10.0   .     S
V58     V60    10.0   1_545     S
V58     V59    10.0   .     S
V58     V71    10.0   .     S
V58     V68    10.0   .     S
V58     V61    10.0   .     S
V58     V57    10.0   1_545     S
V58     V62    10.0   .     S
V59     V68    10.0   .     S
V59     V60    10.0   .     S
V59     V72    10.0   .     S
V59     V69    10.0   .     S
V59     V62    10.0   .     S
V59     V63    10.0   .     S
V60     V69    10.0   .     S
V60     V58    10.0   1_565     S
V60     V70    10.0   1_565     S
V60     V67    10.0   1_565     S
V60     V63    10.0   .     S
V60     V61    10.0   1_565     S
V60     Er40    10.0   1_565     S
V61     V70    10.0   .     S
V61     V63    10.0   1_545     S
V61     V62    10.0   .     S
V61     V65    10.0   .     S
V61     V71    10.0   .     S
V61     V55    10.0   1_655     S
V61     V60    10.0   1_545     S
V61     V56    10.0   1_655     S
V62     V71    10.0   .     S
V62     V63    10.0   .     S
V62     V66    10.0   .     S
V62     V72    10.0   .     S
V62     V56    10.0   1_655     S
V62     V57    10.0   1_655     S
V63     V72    10.0   .     S
V63     V61    10.0   1_565     S
V63     V64    10.0   1_665     S
V63     V70    10.0   1_565     S
V63     V57    10.0   1_655     S
V63     V55    10.0   1_665     S
V63     Er43    10.0   1_565     S
V64     Er79    10.0   1_455     S
V64     Er73    10.0   .     S
V64     Er81    10.0   1_445     S
V64     V63    10.0   1_445     S
V64     V57    10.0   1_545     S
V64     V65    10.0   1_455     S
V64     V66    10.0   1_445     S
V64     V68    10.0   .     S
V64     V72    10.0   1_445     S
V64     V67    10.0   .     S
V64     V70    10.0   1_455     S
V65     Er80    10.0   .     S
V65     Er74    10.0   1_655     S
V65     Er79    10.0   .     S
V65     V56    10.0   1_655     S
V65     V55    10.0   1_655     S
V65     V64    10.0   1_655     S
V65     V66    10.0   .     S
V65     V69    10.0   1_655     S
V65     V70    10.0   .     S
V65     V68    10.0   1_655     S
V65     V71    10.0   .     S
V66     Er81    10.0   .     S
V66     Er75    10.0   1_655     S
V66     Er80    10.0   .     S
V66     V57    10.0   1_655     S
V66     V56    10.0   1_655     S
V66     V64    10.0   1_665     S
V66     V67    10.0   1_665     S
V66     V71    10.0   .     S
V66     V69    10.0   1_655     S
V66     V72    10.0   .     S
V67     Er73    10.0   .     S
V67     Er76    10.0   .     S
V67     Er75    10.0   1_545     S
V67     V57    10.0   1_545     S
V67     V60    10.0   1_545     S
V67     V68    10.0   .     S
V67     V69    10.0   1_545     S
V67     V66    10.0   1_445     S
V67     V71    10.0   .     S
V67     V70    10.0   .     S
V68     Er74    10.0   .     S
V68     Er77    10.0   .     S
V68     Er73    10.0   .     S
V68     V69    10.0   .     S
V68     V72    10.0   .     S
V68     V65    10.0   1_455     S
V68     V71    10.0   .     S
V69     Er75    10.0   .     S
V69     Er78    10.0   .     S
V69     Er74    10.0   .     S
V69     V67    10.0   1_565     S
V69     V65    10.0   1_455     S
V69     V70    10.0   1_565     S
V69     V66    10.0   1_455     S
V69     V72    10.0   .     S
V70     Er76    10.0   .     S
V70     Er79    10.0   .     S
V70     Er78    10.0   1_545     S
V70     V60    10.0   1_545     S
V70     V63    10.0   1_545     S
V70     V71    10.0   .     S
V70     V72    10.0   1_545     S
V70     V69    10.0   1_545     S
V70     V64    10.0   1_655     S
V71     Er77    10.0   .     S
V71     Er80    10.0   .     S
V71     Er76    10.0   .     S
V71     V72    10.0   .     S
V72     Er78    10.0   .     S
V72     Er81    10.0   .     S
V72     Er77    10.0   .     S
V72     V70    10.0   1_565     S
V72     V64    10.0   1_665     S
Er73     Er86    10.0   .     S
Er73     Er85    10.0   .     S
Er73     Er82    10.0   .     S
Er73     Er79    10.0   1_455     S
Er73     Er76    10.0   .     S
Er73     Er74    10.0   .     S
Er73     Er75    10.0   1_545     S
Er73     Er81    10.0   1_445     S
Er73     Er77    10.0   .     S
Er74     V65    10.0   1_455     S
Er74     Er87    10.0   .     S
Er74     Er86    10.0   .     S
Er74     Er83    10.0   1_455     S
Er74     Er80    10.0   1_455     S
Er74     Er77    10.0   .     S
Er74     Er75    10.0   .     S
Er74     Er79    10.0   1_455     S
Er74     Er78    10.0   .     S
Er75     V66    10.0   1_455     S
Er75     V67    10.0   1_565     S
Er75     Er85    10.0   1_565     S
Er75     Er87    10.0   .     S
Er75     Er84    10.0   1_455     S
Er75     Er81    10.0   1_455     S
Er75     Er78    10.0   .     S
Er75     Er73    10.0   1_565     S
Er75     Er80    10.0   1_455     S
Er75     Er76    10.0   1_565     S
Er76     Er89    10.0   .     S
Er76     Er88    10.0   .     S
Er76     Er85    10.0   .     S
Er76     Er79    10.0   .     S
Er76     Er77    10.0   .     S
Er76     Er78    10.0   1_545     S
Er76     Er75    10.0   1_545     S
Er76     Er80    10.0   .     S
Er77     Er90    10.0   .     S
Er77     Er89    10.0   .     S
Er77     Er86    10.0   .     S
Er77     Er80    10.0   .     S
Er77     Er78    10.0   .     S
Er77     Er81    10.0   .     S
Er78     V70    10.0   1_565     S
Er78     Er88    10.0   1_565     S
Er78     Er90    10.0   .     S
Er78     Er87    10.0   .     S
Er78     Er81    10.0   .     S
Er78     Er76    10.0   1_565     S
Er78     Er79    10.0   1_565     S
Er79     V64    10.0   1_655     S
Er79     Er83    10.0   .     S
Er79     Er82    10.0   1_655     S
Er79     Er88    10.0   .     S
Er79     Er73    10.0   1_655     S
Er79     Er80    10.0   .     S
Er79     Er81    10.0   1_545     S
Er79     Er74    10.0   1_655     S
Er79     Er78    10.0   1_545     S
Er80     Er84    10.0   .     S
Er80     Er83    10.0   .     S
Er80     Er89    10.0   .     S
Er80     Er74    10.0   1_655     S
Er80     Er81    10.0   .     S
Er80     Er75    10.0   1_655     S
Er81     V64    10.0   1_665     S
Er81     Er82    10.0   1_665     S
Er81     Er84    10.0   .     S
Er81     Er90    10.0   .     S
Er81     Er75    10.0   1_655     S
Er81     Er79    10.0   1_565     S
Er81     Er73    10.0   1_665     S
Er82     Er81    10.0   1_445     S
Er82     Er83    10.0   1_455     S
Er82     Er84    10.0   1_445     S
Er82     Er79    10.0   1_455     S
Er82     Er85    10.0   .     S
Er82     Er88    10.0   1_455     S
Er82     Er86    10.0   .     S
Er82     Er90    10.0   1_445     S
Er82     V97    10.0   1_455     S
Er82     V91    10.0   .     S
Er82     V99    10.0   1_445     S
Er83     Er82    10.0   1_655     S
Er83     Er84    10.0   .     S
Er83     Er74    10.0   1_655     S
Er83     Er86    10.0   1_655     S
Er83     Er89    10.0   .     S
Er83     Er87    10.0   1_655     S
Er83     Er88    10.0   .     S
Er83     V98    10.0   .     S
Er83     V92    10.0   1_655     S
Er83     V97    10.0   .     S
Er84     Er82    10.0   1_665     S
Er84     Er75    10.0   1_655     S
Er84     Er87    10.0   1_655     S
Er84     Er90    10.0   .     S
Er84     Er85    10.0   1_665     S
Er84     Er89    10.0   .     S
Er84     V99    10.0   .     S
Er84     V93    10.0   1_655     S
Er84     V98    10.0   .     S
Er85     Er75    10.0   1_545     S
Er85     Er86    10.0   .     S
Er85     Er87    10.0   1_545     S
Er85     Er88    10.0   .     S
Er85     Er84    10.0   1_445     S
Er85     Er89    10.0   .     S
Er85     V91    10.0   .     S
Er85     V94    10.0   .     S
Er85     V93    10.0   1_545     S
Er86     Er87    10.0   .     S
Er86     Er83    10.0   1_455     S
Er86     Er89    10.0   .     S
Er86     Er90    10.0   .     S
Er86     V92    10.0   .     S
Er86     V95    10.0   .     S
Er86     V91    10.0   .     S
Er87     Er85    10.0   1_565     S
Er87     Er84    10.0   1_455     S
Er87     Er90    10.0   .     S
Er87     Er83    10.0   1_455     S
Er87     Er88    10.0   1_565     S
Er87     V93    10.0   .     S
Er87     V96    10.0   .     S
Er87     V92    10.0   .     S
Er88     Er78    10.0   1_545     S
Er88     Er89    10.0   .     S
Er88     Er90    10.0   1_545     S
Er88     Er82    10.0   1_655     S
Er88     Er87    10.0   1_545     S
Er88     V94    10.0   .     S
Er88     V97    10.0   .     S
Er88     V96    10.0   1_545     S
Er89     Er90    10.0   .     S
Er89     V95    10.0   .     S
Er89     V98    10.0   .     S
Er89     V94    10.0   .     S
Er90     Er88    10.0   1_565     S
Er90     Er82    10.0   1_665     S
Er90     V96    10.0   .     S
Er90     V99    10.0   .     S
Er90     V95    10.0   .     S
V91     V103    10.0   1_554     S
V91     V100    10.0   1_554     S
V91     V97    10.0   1_455     S
V91     V94    10.0   .     S
V91     V102    10.0   1_544     S
V91     V92    10.0   .     S
V91     V93    10.0   1_545     S
V91     V99    10.0   1_445     S
V91     V95    10.0   .     S
V92     Er83    10.0   1_455     S
V92     V104    10.0   1_554     S
V92     V101    10.0   1_554     S
V92     V98    10.0   1_455     S
V92     V95    10.0   .     S
V92     V100    10.0   1_554     S
V92     V93    10.0   .     S
V92     V97    10.0   1_455     S
V92     V96    10.0   .     S
V93     Er84    10.0   1_455     S
V93     Er85    10.0   1_565     S
V93     V105    10.0   1_554     S
V93     V102    10.0   1_554     S
V93     V99    10.0   1_455     S
V93     V96    10.0   .     S
V93     V101    10.0   1_554     S
V93     V91    10.0   1_565     S
V93     V98    10.0   1_455     S
V93     V94    10.0   1_565     S
V94     V106    10.0   1_554     S
V94     V103    10.0   1_554     S
V94     V97    10.0   .     S
V94     V105    10.0   1_544     S
V94     V95    10.0   .     S
V94     V96    10.0   1_545     S
V94     V93    10.0   1_545     S
V94     V98    10.0   .     S
V95     V107    10.0   1_554     S
V95     V104    10.0   1_554     S
V95     V98    10.0   .     S
V95     V103    10.0   1_554     S
V95     V96    10.0   .     S
V95     V99    10.0   .     S
V96     Er88    10.0   1_565     S
V96     V108    10.0   1_554     S
V96     V105    10.0   1_554     S
V96     V99    10.0   .     S
V96     V104    10.0   1_554     S
V96     V94    10.0   1_565     S
V96     V97    10.0   1_565     S
V97     Er82    10.0   1_655     S
V97     V100    10.0   1_654     S
V97     V106    10.0   1_554     S
V97     V91    10.0   1_655     S
V97     V108    10.0   1_544     S
V97     V98    10.0   .     S
V97     V99    10.0   1_545     S
V97     V92    10.0   1_655     S
V97     V96    10.0   1_545     S
V98     V101    10.0   1_654     S
V98     V107    10.0   1_554     S
V98     V92    10.0   1_655     S
V98     V106    10.0   1_554     S
V98     V99    10.0   .     S
V98     V93    10.0   1_655     S
V99     Er82    10.0   1_665     S
V99     V102    10.0   1_654     S
V99     V108    10.0   1_554     S
V99     V93    10.0   1_655     S
V99     V107    10.0   1_554     S
V99     V97    10.0   1_565     S
V99     V91    10.0   1_665     S
V100     V97    10.0   1_456     S
V100     V91    10.0   1_556     S
V100     V92    10.0   1_556     S
V100     V102    10.0   1_545     S
V100     V101    10.0   .     S
V100     V103    10.0   .     S
V100     V106    10.0   1_455     S
V100     V104    10.0   .     S
V100     V108    10.0   1_445     S
V100     Er11    10.0   1_455     S
V101     V98    10.0   1_456     S
V101     V92    10.0   1_556     S
V101     V93    10.0   1_556     S
V101     V102    10.0   .     S
V101     V104    10.0   .     S
V101     V107    10.0   1_455     S
V101     V105    10.0   .     S
V101     V106    10.0   1_455     S
V101     Er12    10.0   1_455     S
V101     Er11    10.0   1_455     S
V102     V99    10.0   1_456     S
V102     V93    10.0   1_556     S
V102     V91    10.0   1_566     S
V102     V100    10.0   1_565     S
V102     V105    10.0   .     S
V102     V108    10.0   1_455     S
V102     V103    10.0   1_565     S
V102     V107    10.0   1_455     S
V102     Er10    10.0   1_565     S
V102     Er12    10.0   1_455     S
V102     Er13    10.0   1_565     S
V103     V91    10.0   1_556     S
V103     V94    10.0   1_556     S
V103     V95    10.0   1_556     S
V103     V105    10.0   1_545     S
V103     V104    10.0   .     S
V103     V106    10.0   .     S
V103     V102    10.0   1_545     S
V103     V107    10.0   .     S
V104     V92    10.0   1_556     S
V104     V95    10.0   1_556     S
V104     V96    10.0   1_556     S
V104     V105    10.0   .     S
V104     V107    10.0   .     S
V104     V108    10.0   .     S
V105     V93    10.0   1_556     S
V105     V96    10.0   1_556     S
V105     V94    10.0   1_566     S
V105     V103    10.0   1_565     S
V105     V108    10.0   .     S
V105     V106    10.0   1_565     S
V105     Er13    10.0   1_565     S
V105     Er16    10.0   1_565     S
V106     V94    10.0   1_556     S
V106     V97    10.0   1_556     S
V106     V98    10.0   1_556     S
V106     V108    10.0   1_545     S
V106     V107    10.0   .     S
V106     V100    10.0   1_655     S
V106     V105    10.0   1_545     S
V106     V101    10.0   1_655     S
V107     V95    10.0   1_556     S
V107     V98    10.0   1_556     S
V107     V99    10.0   1_556     S
V107     V108    10.0   .     S
V107     V101    10.0   1_655     S
V107     V102    10.0   1_655     S
V108     V96    10.0   1_556     S
V108     V99    10.0   1_556     S
V108     V97    10.0   1_566     S
V108     V106    10.0   1_565     S
V108     V102    10.0   1_655     S
V108     V100    10.0   1_665     S
V108     Er16    10.0   1_565     S
V108     Er10    10.0   1_665     S
