data_tsl
_audit_creation_date              2019-12-31
_audit_creation_method            'Pymatgen'
_symmetry_space_group_name_H-M    'P1'
_symmetry_Int_Tables_number       1
loop_
_symmetry_equiv_pos_as_xyz
  x,y,z
_cell_length_a                    38.4762
_cell_length_b                    38.4762
_cell_length_c                    43.6864
_cell_angle_alpha                 90.0
_cell_angle_beta                 90.0
_cell_angle_gamma                 90.0
loop_
_atom_site_label
_atom_site_type_symbol
_atom_site_fract_x
_atom_site_fract_y
_atom_site_fract_z
V1     V     0.0   0.0833   0.9573
V2     V     0.0   0.4167   0.9573
V3     V     0.0   0.75   0.9573
V4     V     0.3333   0.0833   0.9573
V5     V     0.3333   0.4167   0.9573
V6     V     0.3333   0.75   0.9573
V7     V     0.6667   0.0833   0.9573
V8     V     0.6667   0.4167   0.9573
V9     V     0.6667   0.75   0.9573
V10     V     0.0   0.0833   0.7927
V11     V     0.0   0.4167   0.7927
V12     V     0.0   0.75   0.7927
V13     V     0.3333   0.0833   0.7927
V14     V     0.3333   0.4167   0.7927
V15     V     0.3333   0.75   0.7927
V16     V     0.6667   0.0833   0.7927
V17     V     0.6667   0.4167   0.7927
V18     V     0.6667   0.75   0.7927
V19     V     0.1667   0.25   0.4573
V20     V     0.1667   0.5833   0.4573
V21     V     0.1667   0.9167   0.4573
V22     V     0.5   0.25   0.4573
V23     V     0.5   0.5833   0.4573
V24     V     0.5   0.9167   0.4573
V25     V     0.8333   0.25   0.4573
V26     V     0.8333   0.5833   0.4573
V27     V     0.8333   0.9167   0.4573
V28     V     0.1667   0.25   0.2927
V29     V     0.1667   0.5833   0.2927
V30     V     0.1667   0.9167   0.2927
V31     V     0.5   0.25   0.2927
V32     V     0.5   0.5833   0.2927
V33     V     0.5   0.9167   0.2927
V34     V     0.8333   0.25   0.2927
V35     V     0.8333   0.5833   0.2927
V36     V     0.8333   0.9167   0.2927
V37     V     0.0   0.25   0.2073
V38     V     0.0   0.5833   0.2073
V39     V     0.0   0.9167   0.2073
V40     V     0.3333   0.25   0.2073
V41     V     0.3333   0.5833   0.2073
V42     V     0.3333   0.9167   0.2073
V43     V     0.6667   0.25   0.2073
V44     V     0.6667   0.5833   0.2073
V45     V     0.6667   0.9167   0.2073
V46     V     0.0   0.25   0.0427
V47     V     0.0   0.5833   0.0427
V48     V     0.0   0.9167   0.0427
V49     V     0.3333   0.25   0.0427
V50     V     0.3333   0.5833   0.0427
V51     V     0.3333   0.9167   0.0427
V52     V     0.6667   0.25   0.0427
V53     V     0.6667   0.5833   0.0427
V54     V     0.6667   0.9167   0.0427
V55     V     0.1667   0.0833   0.5427
V56     V     0.1667   0.4167   0.5427
V57     V     0.1667   0.75   0.5427
V58     V     0.5   0.0833   0.5427
V59     V     0.5   0.4167   0.5427
V60     V     0.5   0.75   0.5427
V61     V     0.8333   0.0833   0.5427
V62     V     0.8333   0.4167   0.5427
V63     V     0.8333   0.75   0.5427
V64     V     0.1667   0.0833   0.7073
V65     V     0.1667   0.4167   0.7073
V66     V     0.1667   0.75   0.7073
V67     V     0.5   0.0833   0.7073
V68     V     0.5   0.4167   0.7073
V69     V     0.5   0.75   0.7073
V70     V     0.8333   0.0833   0.7073
V71     V     0.8333   0.4167   0.7073
V72     V     0.8333   0.75   0.7073
Er73     Er     0.0   0.0833   0.375
Er74     Er     0.0   0.4167   0.375
Er75     Er     0.0   0.75   0.375
Er76     Er     0.3333   0.0833   0.375
Er77     Er     0.3333   0.4167   0.375
Er78     Er     0.3333   0.75   0.375
Er79     Er     0.6667   0.0833   0.375
Er80     Er     0.6667   0.4167   0.375
Er81     Er     0.6667   0.75   0.375
Er82     Er     0.1667   0.0833   0.125
Er83     Er     0.1667   0.4167   0.125
Er84     Er     0.1667   0.75   0.125
Er85     Er     0.5   0.0833   0.125
Er86     Er     0.5   0.4167   0.125
Er87     Er     0.5   0.75   0.125
Er88     Er     0.8333   0.0833   0.125
Er89     Er     0.8333   0.4167   0.125
Er90     Er     0.8333   0.75   0.125
Er91     Er     0.0   0.25   0.625
Er92     Er     0.0   0.5833   0.625
Er93     Er     0.0   0.9167   0.625
Er94     Er     0.3333   0.25   0.625
Er95     Er     0.3333   0.5833   0.625
Er96     Er     0.3333   0.9167   0.625
Er97     Er     0.6667   0.25   0.625
Er98     Er     0.6667   0.5833   0.625
Er99     Er     0.6667   0.9167   0.625
Er100     Er     0.1667   0.25   0.875
Er101     Er     0.1667   0.5833   0.875
Er102     Er     0.1667   0.9167   0.875
Er103     Er     0.5   0.25   0.875
Er104     Er     0.5   0.5833   0.875
Er105     Er     0.5   0.9167   0.875
Er106     Er     0.8333   0.25   0.875
Er107     Er     0.8333   0.5833   0.875
Er108     Er     0.8333   0.9167   0.875
loop_
_geom_bond_atom_site_label_1
_geom_bond_atom_site_label_2
_geom_bond_distance
_geom_bond_site_symmetry_2
_ccdc_geom_bond_type
V1     V46    7.419   1_556     S
V1     V48    7.419   1_546     S
V1     V10    7.19   .     S
V1     Er82    9.737   1_556     S
V1     Er88    9.737   1_456     S
V1     Er106    9.755   1_455     S
V1     Er100    9.755   .     S
V1     Er102    9.755   1_545     S
V1     Er108    9.755   1_445     S
V2     V47    7.419   1_556     S
V2     V46    7.419   1_556     S
V2     V11    7.19   .     S
V2     Er83    9.737   1_556     S
V2     Er89    9.737   1_456     S
V2     Er107    9.755   1_455     S
V2     Er101    9.755   .     S
V2     Er100    9.755   .     S
V2     Er106    9.755   1_455     S
V3     V48    7.419   1_556     S
V3     V47    7.419   1_556     S
V3     V12    7.19   .     S
V3     Er84    9.737   1_556     S
V3     Er90    9.737   1_456     S
V3     Er108    9.755   1_455     S
V3     Er102    9.755   .     S
V3     Er101    9.755   .     S
V3     Er107    9.755   1_455     S
V4     V49    7.419   1_556     S
V4     V51    7.419   1_546     S
V4     V13    7.19   .     S
V4     Er85    9.737   1_556     S
V4     Er82    9.737   1_556     S
V4     Er100    9.755   .     S
V4     Er103    9.755   .     S
V4     Er105    9.755   1_545     S
V4     Er102    9.755   1_545     S
V5     V50    7.419   1_556     S
V5     V49    7.419   1_556     S
V5     V14    7.19   .     S
V5     Er86    9.737   1_556     S
V5     Er83    9.737   1_556     S
V5     Er101    9.755   .     S
V5     Er104    9.755   .     S
V5     Er103    9.755   .     S
V5     Er100    9.755   .     S
V6     V51    7.419   1_556     S
V6     V50    7.419   1_556     S
V6     V15    7.19   .     S
V6     Er87    9.737   1_556     S
V6     Er84    9.737   1_556     S
V6     Er102    9.755   .     S
V6     Er105    9.755   .     S
V6     Er104    9.755   .     S
V6     Er101    9.755   .     S
V7     V52    7.419   1_556     S
V7     V54    7.419   1_546     S
V7     V16    7.19   .     S
V7     Er88    9.737   1_556     S
V7     Er85    9.737   1_556     S
V7     Er103    9.755   .     S
V7     Er106    9.755   .     S
V7     Er108    9.755   1_545     S
V7     Er105    9.755   1_545     S
V8     V53    7.419   1_556     S
V8     V52    7.419   1_556     S
V8     V17    7.19   .     S
V8     Er89    9.737   1_556     S
V8     Er86    9.737   1_556     S
V8     Er104    9.755   .     S
V8     Er107    9.755   .     S
V8     Er106    9.755   .     S
V8     Er103    9.755   .     S
V9     V54    7.419   1_556     S
V9     V53    7.419   1_556     S
V9     V18    7.19   .     S
V9     Er90    9.737   1_556     S
V9     Er87    9.737   1_556     S
V9     Er105    9.755   .     S
V9     Er108    9.755   .     S
V9     Er107    9.755   .     S
V9     Er104    9.755   .     S
V10     V70    7.419   1_455     S
V10     V64    7.419   .     S
V10     Er106    9.755   1_455     S
V10     Er100    9.755   .     S
V10     Er102    9.755   1_545     S
V10     Er108    9.755   1_445     S
V10     Er93    9.737   1_545     S
V10     Er91    9.737   .     S
V11     V71    7.419   1_455     S
V11     V65    7.419   .     S
V11     Er107    9.755   1_455     S
V11     Er101    9.755   .     S
V11     Er100    9.755   .     S
V11     Er106    9.755   1_455     S
V11     Er91    9.737   .     S
V11     Er92    9.737   .     S
V12     V72    7.419   1_455     S
V12     V66    7.419   .     S
V12     Er108    9.755   1_455     S
V12     Er102    9.755   .     S
V12     Er101    9.755   .     S
V12     Er107    9.755   1_455     S
V12     Er92    9.737   .     S
V12     Er93    9.737   .     S
V13     V64    7.419   .     S
V13     V67    7.419   .     S
V13     Er100    9.755   .     S
V13     Er103    9.755   .     S
V13     Er105    9.755   1_545     S
V13     Er102    9.755   1_545     S
V13     Er96    9.737   1_545     S
V13     Er94    9.737   .     S
V14     V65    7.419   .     S
V14     V68    7.419   .     S
V14     Er101    9.755   .     S
V14     Er104    9.755   .     S
V14     Er103    9.755   .     S
V14     Er100    9.755   .     S
V14     Er94    9.737   .     S
V14     Er95    9.737   .     S
V15     V66    7.419   .     S
V15     V69    7.419   .     S
V15     Er102    9.755   .     S
V15     Er105    9.755   .     S
V15     Er104    9.755   .     S
V15     Er101    9.755   .     S
V15     Er95    9.737   .     S
V15     Er96    9.737   .     S
V16     V67    7.419   .     S
V16     V70    7.419   .     S
V16     Er103    9.755   .     S
V16     Er106    9.755   .     S
V16     Er108    9.755   1_545     S
V16     Er105    9.755   1_545     S
V16     Er99    9.737   1_545     S
V16     Er97    9.737   .     S
V17     V68    7.419   .     S
V17     V71    7.419   .     S
V17     Er104    9.755   .     S
V17     Er107    9.755   .     S
V17     Er106    9.755   .     S
V17     Er103    9.755   .     S
V17     Er97    9.737   .     S
V17     Er98    9.737   .     S
V18     V69    7.419   .     S
V18     V72    7.419   .     S
V18     Er105    9.755   .     S
V18     Er108    9.755   .     S
V18     Er107    9.755   .     S
V18     Er104    9.755   .     S
V18     Er98    9.737   .     S
V18     Er99    9.737   .     S
V19     V55    7.419   .     S
V19     V56    7.419   .     S
V19     V28    7.19   .     S
V19     Er91    9.737   .     S
V19     Er94    9.737   .     S
V19     Er73    9.755   .     S
V19     Er76    9.755   .     S
V19     Er77    9.755   .     S
V19     Er74    9.755   .     S
V20     V56    7.419   .     S
V20     V57    7.419   .     S
V20     V29    7.19   .     S
V20     Er92    9.737   .     S
V20     Er95    9.737   .     S
V20     Er74    9.755   .     S
V20     Er77    9.755   .     S
V20     Er78    9.755   .     S
V20     Er75    9.755   .     S
V21     V57    7.419   .     S
V21     V55    7.419   1_565     S
V21     V30    7.19   .     S
V21     Er93    9.737   .     S
V21     Er96    9.737   .     S
V21     Er75    9.755   .     S
V21     Er78    9.755   .     S
V21     Er76    9.755   1_565     S
V21     Er73    9.755   1_565     S
V22     V58    7.419   .     S
V22     V59    7.419   .     S
V22     V31    7.19   .     S
V22     Er94    9.737   .     S
V22     Er97    9.737   .     S
V22     Er76    9.755   .     S
V22     Er79    9.755   .     S
V22     Er80    9.755   .     S
V22     Er77    9.755   .     S
V23     V59    7.419   .     S
V23     V60    7.419   .     S
V23     V32    7.19   .     S
V23     Er95    9.737   .     S
V23     Er98    9.737   .     S
V23     Er77    9.755   .     S
V23     Er80    9.755   .     S
V23     Er81    9.755   .     S
V23     Er78    9.755   .     S
V24     V60    7.419   .     S
V24     V58    7.419   1_565     S
V24     V33    7.19   .     S
V24     Er96    9.737   .     S
V24     Er99    9.737   .     S
V24     Er78    9.755   .     S
V24     Er81    9.755   .     S
V24     Er79    9.755   1_565     S
V24     Er76    9.755   1_565     S
V25     V61    7.419   .     S
V25     V62    7.419   .     S
V25     V34    7.19   .     S
V25     Er97    9.737   .     S
V25     Er91    9.737   1_655     S
V25     Er79    9.755   .     S
V25     Er73    9.755   1_655     S
V25     Er74    9.755   1_655     S
V25     Er80    9.755   .     S
V26     V62    7.419   .     S
V26     V63    7.419   .     S
V26     V35    7.19   .     S
V26     Er98    9.737   .     S
V26     Er92    9.737   1_655     S
V26     Er80    9.755   .     S
V26     Er74    9.755   1_655     S
V26     Er75    9.755   1_655     S
V26     Er81    9.755   .     S
V27     V63    7.419   .     S
V27     V61    7.419   1_565     S
V27     V36    7.19   .     S
V27     Er99    9.737   .     S
V27     Er93    9.737   1_655     S
V27     Er81    9.755   .     S
V27     Er75    9.755   1_655     S
V27     Er73    9.755   1_665     S
V27     Er79    9.755   1_565     S
V28     V40    7.419   .     S
V28     V37    7.419   .     S
V28     Er82    9.737   .     S
V28     Er83    9.737   .     S
V28     Er73    9.755   .     S
V28     Er76    9.755   .     S
V28     Er77    9.755   .     S
V28     Er74    9.755   .     S
V29     V41    7.419   .     S
V29     V38    7.419   .     S
V29     Er83    9.737   .     S
V29     Er84    9.737   .     S
V29     Er74    9.755   .     S
V29     Er77    9.755   .     S
V29     Er78    9.755   .     S
V29     Er75    9.755   .     S
V30     V42    7.419   .     S
V30     V39    7.419   .     S
V30     Er84    9.737   .     S
V30     Er82    9.737   1_565     S
V30     Er75    9.755   .     S
V30     Er78    9.755   .     S
V30     Er76    9.755   1_565     S
V30     Er73    9.755   1_565     S
V31     V43    7.419   .     S
V31     V40    7.419   .     S
V31     Er85    9.737   .     S
V31     Er86    9.737   .     S
V31     Er76    9.755   .     S
V31     Er79    9.755   .     S
V31     Er80    9.755   .     S
V31     Er77    9.755   .     S
V32     V44    7.419   .     S
V32     V41    7.419   .     S
V32     Er86    9.737   .     S
V32     Er87    9.737   .     S
V32     Er77    9.755   .     S
V32     Er80    9.755   .     S
V32     Er81    9.755   .     S
V32     Er78    9.755   .     S
V33     V45    7.419   .     S
V33     V42    7.419   .     S
V33     Er87    9.737   .     S
V33     Er85    9.737   1_565     S
V33     Er78    9.755   .     S
V33     Er81    9.755   .     S
V33     Er79    9.755   1_565     S
V33     Er76    9.755   1_565     S
V34     V37    7.419   1_655     S
V34     V43    7.419   .     S
V34     Er88    9.737   .     S
V34     Er89    9.737   .     S
V34     Er79    9.755   .     S
V34     Er73    9.755   1_655     S
V34     Er74    9.755   1_655     S
V34     Er80    9.755   .     S
V35     V38    7.419   1_655     S
V35     V44    7.419   .     S
V35     Er89    9.737   .     S
V35     Er90    9.737   .     S
V35     Er80    9.755   .     S
V35     Er74    9.755   1_655     S
V35     Er75    9.755   1_655     S
V35     Er81    9.755   .     S
V36     V39    7.419   1_655     S
V36     V45    7.419   .     S
V36     Er90    9.737   .     S
V36     Er88    9.737   1_565     S
V36     Er81    9.755   .     S
V36     Er75    9.755   1_655     S
V36     Er73    9.755   1_665     S
V36     Er79    9.755   1_565     S
V37     V34    7.419   1_455     S
V37     V46    7.19   .     S
V37     Er82    9.755   .     S
V37     Er88    9.755   1_455     S
V37     Er89    9.755   1_455     S
V37     Er83    9.755   .     S
V37     Er73    9.737   .     S
V37     Er74    9.737   .     S
V38     V35    7.419   1_455     S
V38     V47    7.19   .     S
V38     Er83    9.755   .     S
V38     Er89    9.755   1_455     S
V38     Er90    9.755   1_455     S
V38     Er84    9.755   .     S
V38     Er74    9.737   .     S
V38     Er75    9.737   .     S
V39     V36    7.419   1_455     S
V39     V48    7.19   .     S
V39     Er84    9.755   .     S
V39     Er90    9.755   1_455     S
V39     Er88    9.755   1_465     S
V39     Er82    9.755   1_565     S
V39     Er75    9.737   .     S
V39     Er73    9.737   1_565     S
V40     V49    7.19   .     S
V40     Er85    9.755   .     S
V40     Er82    9.755   .     S
V40     Er83    9.755   .     S
V40     Er86    9.755   .     S
V40     Er76    9.737   .     S
V40     Er77    9.737   .     S
V41     V50    7.19   .     S
V41     Er86    9.755   .     S
V41     Er83    9.755   .     S
V41     Er84    9.755   .     S
V41     Er87    9.755   .     S
V41     Er77    9.737   .     S
V41     Er78    9.737   .     S
V42     V51    7.19   .     S
V42     Er87    9.755   .     S
V42     Er84    9.755   .     S
V42     Er82    9.755   1_565     S
V42     Er85    9.755   1_565     S
V42     Er78    9.737   .     S
V42     Er76    9.737   1_565     S
V43     V52    7.19   .     S
V43     Er88    9.755   .     S
V43     Er85    9.755   .     S
V43     Er86    9.755   .     S
V43     Er89    9.755   .     S
V43     Er79    9.737   .     S
V43     Er80    9.737   .     S
V44     V53    7.19   .     S
V44     Er89    9.755   .     S
V44     Er86    9.755   .     S
V44     Er87    9.755   .     S
V44     Er90    9.755   .     S
V44     Er80    9.737   .     S
V44     Er81    9.737   .     S
V45     V54    7.19   .     S
V45     Er90    9.755   .     S
V45     Er87    9.755   .     S
V45     Er85    9.755   1_565     S
V45     Er88    9.755   1_565     S
V45     Er81    9.737   .     S
V45     Er79    9.737   1_565     S
V46     V1    7.419   1_554     S
V46     V2    7.419   1_554     S
V46     Er82    9.755   .     S
V46     Er88    9.755   1_455     S
V46     Er89    9.755   1_455     S
V46     Er83    9.755   .     S
V46     Er106    9.737   1_454     S
V46     Er100    9.737   1_554     S
V47     V2    7.419   1_554     S
V47     V3    7.419   1_554     S
V47     Er83    9.755   .     S
V47     Er89    9.755   1_455     S
V47     Er90    9.755   1_455     S
V47     Er84    9.755   .     S
V47     Er107    9.737   1_454     S
V47     Er101    9.737   1_554     S
V48     V3    7.419   1_554     S
V48     V1    7.419   1_564     S
V48     Er84    9.755   .     S
V48     Er90    9.755   1_455     S
V48     Er88    9.755   1_465     S
V48     Er82    9.755   1_565     S
V48     Er108    9.737   1_454     S
V48     Er102    9.737   1_554     S
V49     V4    7.419   1_554     S
V49     V5    7.419   1_554     S
V49     Er85    9.755   .     S
V49     Er82    9.755   .     S
V49     Er83    9.755   .     S
V49     Er86    9.755   .     S
V49     Er100    9.737   1_554     S
V49     Er103    9.737   1_554     S
V50     V5    7.419   1_554     S
V50     V6    7.419   1_554     S
V50     Er86    9.755   .     S
V50     Er83    9.755   .     S
V50     Er84    9.755   .     S
V50     Er87    9.755   .     S
V50     Er101    9.737   1_554     S
V50     Er104    9.737   1_554     S
V51     V6    7.419   1_554     S
V51     V4    7.419   1_564     S
V51     Er87    9.755   .     S
V51     Er84    9.755   .     S
V51     Er82    9.755   1_565     S
V51     Er85    9.755   1_565     S
V51     Er102    9.737   1_554     S
V51     Er105    9.737   1_554     S
V52     V7    7.419   1_554     S
V52     V8    7.419   1_554     S
V52     Er88    9.755   .     S
V52     Er85    9.755   .     S
V52     Er86    9.755   .     S
V52     Er89    9.755   .     S
V52     Er103    9.737   1_554     S
V52     Er106    9.737   1_554     S
V53     V8    7.419   1_554     S
V53     V9    7.419   1_554     S
V53     Er89    9.755   .     S
V53     Er86    9.755   .     S
V53     Er87    9.755   .     S
V53     Er90    9.755   .     S
V53     Er104    9.737   1_554     S
V53     Er107    9.737   1_554     S
V54     V9    7.419   1_554     S
V54     V7    7.419   1_564     S
V54     Er90    9.755   .     S
V54     Er87    9.755   .     S
V54     Er85    9.755   1_565     S
V54     Er88    9.755   1_565     S
V54     Er105    9.737   1_554     S
V54     Er108    9.737   1_554     S
V55     V21    7.419   1_545     S
V55     V64    7.19   .     S
V55     Er93    9.755   1_545     S
V55     Er91    9.755   .     S
V55     Er96    9.755   1_545     S
V55     Er94    9.755   .     S
V55     Er76    9.737   .     S
V55     Er73    9.737   .     S
V56     V65    7.19   .     S
V56     Er91    9.755   .     S
V56     Er92    9.755   .     S
V56     Er94    9.755   .     S
V56     Er95    9.755   .     S
V56     Er77    9.737   .     S
V56     Er74    9.737   .     S
V57     V66    7.19   .     S
V57     Er92    9.755   .     S
V57     Er93    9.755   .     S
V57     Er95    9.755   .     S
V57     Er96    9.755   .     S
V57     Er78    9.737   .     S
V57     Er75    9.737   .     S
V58     V24    7.419   1_545     S
V58     V67    7.19   .     S
V58     Er96    9.755   1_545     S
V58     Er94    9.755   .     S
V58     Er99    9.755   1_545     S
V58     Er97    9.755   .     S
V58     Er79    9.737   .     S
V58     Er76    9.737   .     S
V59     V68    7.19   .     S
V59     Er94    9.755   .     S
V59     Er95    9.755   .     S
V59     Er97    9.755   .     S
V59     Er98    9.755   .     S
V59     Er80    9.737   .     S
V59     Er77    9.737   .     S
V60     V69    7.19   .     S
V60     Er95    9.755   .     S
V60     Er96    9.755   .     S
V60     Er98    9.755   .     S
V60     Er99    9.755   .     S
V60     Er81    9.737   .     S
V60     Er78    9.737   .     S
V61     V27    7.419   1_545     S
V61     V70    7.19   .     S
V61     Er99    9.755   1_545     S
V61     Er97    9.755   .     S
V61     Er93    9.755   1_645     S
V61     Er91    9.755   1_655     S
V61     Er73    9.737   1_655     S
V61     Er79    9.737   .     S
V62     V71    7.19   .     S
V62     Er97    9.755   .     S
V62     Er98    9.755   .     S
V62     Er91    9.755   1_655     S
V62     Er92    9.755   1_655     S
V62     Er74    9.737   1_655     S
V62     Er80    9.737   .     S
V63     V72    7.19   .     S
V63     Er98    9.755   .     S
V63     Er99    9.755   .     S
V63     Er92    9.755   1_655     S
V63     Er93    9.755   1_655     S
V63     Er75    9.737   1_655     S
V63     Er81    9.737   .     S
V64     Er100    9.737   .     S
V64     Er102    9.737   1_545     S
V64     Er93    9.755   1_545     S
V64     Er91    9.755   .     S
V64     Er96    9.755   1_545     S
V64     Er94    9.755   .     S
V65     Er101    9.737   .     S
V65     Er100    9.737   .     S
V65     Er91    9.755   .     S
V65     Er92    9.755   .     S
V65     Er94    9.755   .     S
V65     Er95    9.755   .     S
V66     Er102    9.737   .     S
V66     Er101    9.737   .     S
V66     Er92    9.755   .     S
V66     Er93    9.755   .     S
V66     Er95    9.755   .     S
V66     Er96    9.755   .     S
V67     Er103    9.737   .     S
V67     Er105    9.737   1_545     S
V67     Er96    9.755   1_545     S
V67     Er94    9.755   .     S
V67     Er99    9.755   1_545     S
V67     Er97    9.755   .     S
V68     Er104    9.737   .     S
V68     Er103    9.737   .     S
V68     Er94    9.755   .     S
V68     Er95    9.755   .     S
V68     Er97    9.755   .     S
V68     Er98    9.755   .     S
V69     Er105    9.737   .     S
V69     Er104    9.737   .     S
V69     Er95    9.755   .     S
V69     Er96    9.755   .     S
V69     Er98    9.755   .     S
V69     Er99    9.755   .     S
V70     V10    7.419   1_655     S
V70     Er106    9.737   .     S
V70     Er108    9.737   1_545     S
V70     Er99    9.755   1_545     S
V70     Er97    9.755   .     S
V70     Er93    9.755   1_645     S
V70     Er91    9.755   1_655     S
V71     V11    7.419   1_655     S
V71     Er107    9.737   .     S
V71     Er106    9.737   .     S
V71     Er97    9.755   .     S
V71     Er98    9.755   .     S
V71     Er91    9.755   1_655     S
V71     Er92    9.755   1_655     S
V72     V12    7.419   1_655     S
V72     Er108    9.737   .     S
V72     Er107    9.737   .     S
V72     Er98    9.755   .     S
V72     Er99    9.755   .     S
V72     Er92    9.755   1_655     S
V72     Er93    9.755   1_655     S
Er73     Er88    12.665   1_455     S
Er73     Er82    12.665   .     S
Er73     Er91    12.665   .     S
Er73     Er93    12.665   1_545     S
Er73     Er76    12.825   .     S
Er73     Er79    12.825   1_455     S
Er73     Er74    12.825   .     S
Er73     Er75    12.825   1_545     S
Er73     V34    9.755   1_455     S
Er73     V25    9.755   1_455     S
Er73     V27    9.755   1_445     S
Er73     V36    9.755   1_445     S
Er73     V61    9.737   1_455     S
Er73     V30    9.755   1_545     S
Er73     V21    9.755   1_545     S
Er73     V39    9.737   1_545     S
Er74     Er89    12.665   1_455     S
Er74     Er83    12.665   .     S
Er74     Er92    12.665   .     S
Er74     Er91    12.665   .     S
Er74     Er77    12.825   .     S
Er74     Er80    12.825   1_455     S
Er74     Er75    12.825   .     S
Er74     V35    9.755   1_455     S
Er74     V26    9.755   1_455     S
Er74     V25    9.755   1_455     S
Er74     V34    9.755   1_455     S
Er74     V62    9.737   1_455     S
Er75     Er90    12.665   1_455     S
Er75     Er84    12.665   .     S
Er75     Er93    12.665   .     S
Er75     Er92    12.665   .     S
Er75     Er78    12.825   .     S
Er75     Er81    12.825   1_455     S
Er75     Er73    12.825   1_565     S
Er75     V36    9.755   1_455     S
Er75     V27    9.755   1_455     S
Er75     V26    9.755   1_455     S
Er75     V35    9.755   1_455     S
Er75     V63    9.737   1_455     S
Er76     Er82    12.665   .     S
Er76     Er85    12.665   .     S
Er76     Er94    12.665   .     S
Er76     Er96    12.665   1_545     S
Er76     Er79    12.825   .     S
Er76     Er77    12.825   .     S
Er76     Er78    12.825   1_545     S
Er76     V21    9.755   1_545     S
Er76     V30    9.755   1_545     S
Er76     V33    9.755   1_545     S
Er76     V24    9.755   1_545     S
Er76     V42    9.737   1_545     S
Er77     Er83    12.665   .     S
Er77     Er86    12.665   .     S
Er77     Er95    12.665   .     S
Er77     Er94    12.665   .     S
Er77     Er80    12.825   .     S
Er77     Er78    12.825   .     S
Er78     Er84    12.665   .     S
Er78     Er87    12.665   .     S
Er78     Er96    12.665   .     S
Er78     Er95    12.665   .     S
Er78     Er81    12.825   .     S
Er78     Er76    12.825   1_565     S
Er79     Er85    12.665   .     S
Er79     Er88    12.665   .     S
Er79     Er97    12.665   .     S
Er79     Er99    12.665   1_545     S
Er79     Er73    12.825   1_655     S
Er79     Er80    12.825   .     S
Er79     Er81    12.825   1_545     S
Er79     V24    9.755   1_545     S
Er79     V33    9.755   1_545     S
Er79     V36    9.755   1_545     S
Er79     V27    9.755   1_545     S
Er79     V45    9.737   1_545     S
Er80     Er86    12.665   .     S
Er80     Er89    12.665   .     S
Er80     Er98    12.665   .     S
Er80     Er97    12.665   .     S
Er80     Er74    12.825   1_655     S
Er80     Er81    12.825   .     S
Er81     Er87    12.665   .     S
Er81     Er90    12.665   .     S
Er81     Er99    12.665   .     S
Er81     Er98    12.665   .     S
Er81     Er75    12.825   1_655     S
Er81     Er79    12.825   1_565     S
Er82     Er100    12.665   1_554     S
Er82     Er102    12.665   1_544     S
Er82     Er88    12.825   1_455     S
Er82     Er85    12.825   .     S
Er82     Er83    12.825   .     S
Er82     Er84    12.825   1_545     S
Er82     V1    9.737   1_554     S
Er82     V42    9.755   1_545     S
Er82     V51    9.755   1_545     S
Er82     V48    9.755   1_545     S
Er82     V39    9.755   1_545     S
Er82     V30    9.737   1_545     S
Er82     V4    9.737   1_554     S
Er83     Er101    12.665   1_554     S
Er83     Er100    12.665   1_554     S
Er83     Er89    12.825   1_455     S
Er83     Er86    12.825   .     S
Er83     Er84    12.825   .     S
Er83     V2    9.737   1_554     S
Er83     V5    9.737   1_554     S
Er84     Er102    12.665   1_554     S
Er84     Er101    12.665   1_554     S
Er84     Er90    12.825   1_455     S
Er84     Er87    12.825   .     S
Er84     Er82    12.825   1_565     S
Er84     V3    9.737   1_554     S
Er84     V6    9.737   1_554     S
Er85     Er103    12.665   1_554     S
Er85     Er105    12.665   1_544     S
Er85     Er88    12.825   .     S
Er85     Er86    12.825   .     S
Er85     Er87    12.825   1_545     S
Er85     V4    9.737   1_554     S
Er85     V45    9.755   1_545     S
Er85     V54    9.755   1_545     S
Er85     V51    9.755   1_545     S
Er85     V42    9.755   1_545     S
Er85     V33    9.737   1_545     S
Er85     V7    9.737   1_554     S
Er86     Er104    12.665   1_554     S
Er86     Er103    12.665   1_554     S
Er86     Er89    12.825   .     S
Er86     Er87    12.825   .     S
Er86     V5    9.737   1_554     S
Er86     V8    9.737   1_554     S
Er87     Er105    12.665   1_554     S
Er87     Er104    12.665   1_554     S
Er87     Er90    12.825   .     S
Er87     Er85    12.825   1_565     S
Er87     V6    9.737   1_554     S
Er87     V9    9.737   1_554     S
Er88     Er106    12.665   1_554     S
Er88     Er73    12.665   1_655     S
Er88     Er108    12.665   1_544     S
Er88     Er82    12.825   1_655     S
Er88     Er89    12.825   .     S
Er88     Er90    12.825   1_545     S
Er88     V46    9.755   1_655     S
Er88     V37    9.755   1_655     S
Er88     V7    9.737   1_554     S
Er88     V39    9.755   1_645     S
Er88     V48    9.755   1_645     S
Er88     V54    9.755   1_545     S
Er88     V45    9.755   1_545     S
Er88     V36    9.737   1_545     S
Er88     V1    9.737   1_654     S
Er89     Er107    12.665   1_554     S
Er89     Er74    12.665   1_655     S
Er89     Er106    12.665   1_554     S
Er89     Er83    12.825   1_655     S
Er89     Er90    12.825   .     S
Er89     V47    9.755   1_655     S
Er89     V38    9.755   1_655     S
Er89     V8    9.737   1_554     S
Er89     V37    9.755   1_655     S
Er89     V46    9.755   1_655     S
Er89     V2    9.737   1_654     S
Er90     Er108    12.665   1_554     S
Er90     Er75    12.665   1_655     S
Er90     Er107    12.665   1_554     S
Er90     Er84    12.825   1_655     S
Er90     Er88    12.825   1_565     S
Er90     V48    9.755   1_655     S
Er90     V39    9.755   1_655     S
Er90     V9    9.737   1_554     S
Er90     V38    9.755   1_655     S
Er90     V47    9.755   1_655     S
Er90     V3    9.737   1_654     S
Er91     Er106    12.665   1_455     S
Er91     Er100    12.665   .     S
Er91     Er94    12.825   .     S
Er91     Er97    12.825   1_455     S
Er91     Er93    12.825   1_545     S
Er91     Er92    12.825   .     S
Er91     V71    9.755   1_455     S
Er91     V62    9.755   1_455     S
Er91     V61    9.755   1_455     S
Er91     V70    9.755   1_455     S
Er91     V25    9.737   1_455     S
Er92     Er107    12.665   1_455     S
Er92     Er101    12.665   .     S
Er92     Er95    12.825   .     S
Er92     Er98    12.825   1_455     S
Er92     Er93    12.825   .     S
Er92     V72    9.755   1_455     S
Er92     V63    9.755   1_455     S
Er92     V62    9.755   1_455     S
Er92     V71    9.755   1_455     S
Er92     V26    9.737   1_455     S
Er93     Er108    12.665   1_455     S
Er93     Er102    12.665   .     S
Er93     Er73    12.665   1_565     S
Er93     Er96    12.825   .     S
Er93     Er99    12.825   1_455     S
Er93     Er91    12.825   1_565     S
Er93     V55    9.755   1_565     S
Er93     V64    9.755   1_565     S
Er93     V10    9.737   1_565     S
Er93     V70    9.755   1_465     S
Er93     V61    9.755   1_465     S
Er93     V63    9.755   1_455     S
Er93     V72    9.755   1_455     S
Er93     V27    9.737   1_455     S
Er94     Er100    12.665   .     S
Er94     Er103    12.665   .     S
Er94     Er97    12.825   .     S
Er94     Er96    12.825   1_545     S
Er94     Er95    12.825   .     S
Er95     Er101    12.665   .     S
Er95     Er104    12.665   .     S
Er95     Er98    12.825   .     S
Er95     Er96    12.825   .     S
Er96     Er102    12.665   .     S
Er96     Er105    12.665   .     S
Er96     Er76    12.665   1_565     S
Er96     Er99    12.825   .     S
Er96     Er94    12.825   1_565     S
Er96     V58    9.755   1_565     S
Er96     V67    9.755   1_565     S
Er96     V13    9.737   1_565     S
Er96     V64    9.755   1_565     S
Er96     V55    9.755   1_565     S
Er97     Er103    12.665   .     S
Er97     Er106    12.665   .     S
Er97     Er91    12.825   1_655     S
Er97     Er99    12.825   1_545     S
Er97     Er98    12.825   .     S
Er98     Er104    12.665   .     S
Er98     Er107    12.665   .     S
Er98     Er92    12.825   1_655     S
Er98     Er99    12.825   .     S
Er99     Er105    12.665   .     S
Er99     Er108    12.665   .     S
Er99     Er79    12.665   1_565     S
Er99     Er93    12.825   1_655     S
Er99     Er97    12.825   1_565     S
Er99     V61    9.755   1_565     S
Er99     V70    9.755   1_565     S
Er99     V16    9.737   1_565     S
Er99     V67    9.755   1_565     S
Er99     V58    9.755   1_565     S
Er100     Er82    12.665   1_556     S
Er100     Er83    12.665   1_556     S
Er100     Er102    12.825   1_545     S
Er100     Er101    12.825   .     S
Er100     Er106    12.825   1_455     S
Er100     Er103    12.825   .     S
Er100     V49    9.737   1_556     S
Er100     V46    9.737   1_556     S
Er101     Er83    12.665   1_556     S
Er101     Er84    12.665   1_556     S
Er101     Er102    12.825   .     S
Er101     Er107    12.825   1_455     S
Er101     Er104    12.825   .     S
Er101     V50    9.737   1_556     S
Er101     V47    9.737   1_556     S
Er102     Er84    12.665   1_556     S
Er102     Er82    12.665   1_566     S
Er102     Er100    12.825   1_565     S
Er102     Er108    12.825   1_455     S
Er102     Er105    12.825   .     S
Er102     V51    9.737   1_556     S
Er102     V48    9.737   1_556     S
Er102     V10    9.755   1_565     S
Er102     V1    9.755   1_565     S
Er102     V4    9.755   1_565     S
Er102     V13    9.755   1_565     S
Er102     V64    9.737   1_565     S
Er103     Er85    12.665   1_556     S
Er103     Er86    12.665   1_556     S
Er103     Er105    12.825   1_545     S
Er103     Er104    12.825   .     S
Er103     Er106    12.825   .     S
Er103     V52    9.737   1_556     S
Er103     V49    9.737   1_556     S
Er104     Er86    12.665   1_556     S
Er104     Er87    12.665   1_556     S
Er104     Er105    12.825   .     S
Er104     Er107    12.825   .     S
Er104     V53    9.737   1_556     S
Er104     V50    9.737   1_556     S
Er105     Er87    12.665   1_556     S
Er105     Er85    12.665   1_566     S
Er105     Er103    12.825   1_565     S
Er105     Er108    12.825   .     S
Er105     V54    9.737   1_556     S
Er105     V51    9.737   1_556     S
Er105     V13    9.755   1_565     S
Er105     V4    9.755   1_565     S
Er105     V7    9.755   1_565     S
Er105     V16    9.755   1_565     S
Er105     V67    9.737   1_565     S
Er106     Er88    12.665   1_556     S
Er106     Er89    12.665   1_556     S
Er106     Er91    12.665   1_655     S
Er106     Er108    12.825   1_545     S
Er106     Er107    12.825   .     S
Er106     Er100    12.825   1_655     S
Er106     V10    9.755   1_655     S
Er106     V1    9.755   1_655     S
Er106     V46    9.737   1_656     S
Er106     V52    9.737   1_556     S
Er106     V2    9.755   1_655     S
Er106     V11    9.755   1_655     S
Er107     Er89    12.665   1_556     S
Er107     Er90    12.665   1_556     S
Er107     Er92    12.665   1_655     S
Er107     Er108    12.825   .     S
Er107     Er101    12.825   1_655     S
Er107     V11    9.755   1_655     S
Er107     V2    9.755   1_655     S
Er107     V47    9.737   1_656     S
Er107     V53    9.737   1_556     S
Er107     V3    9.755   1_655     S
Er107     V12    9.755   1_655     S
Er108     Er90    12.665   1_556     S
Er108     Er88    12.665   1_566     S
Er108     Er93    12.665   1_655     S
Er108     Er106    12.825   1_565     S
Er108     Er102    12.825   1_655     S
Er108     V12    9.755   1_655     S
Er108     V3    9.755   1_655     S
Er108     V48    9.737   1_656     S
Er108     V54    9.737   1_556     S
Er108     V16    9.755   1_565     S
Er108     V7    9.755   1_565     S
Er108     V1    9.755   1_665     S
Er108     V10    9.755   1_665     S
Er108     V70    9.737   1_565     S
