data_txt
_audit_creation_date              2019-12-31
_audit_creation_method            'Pymatgen'
_symmetry_space_group_name_H-M    'P1'
_symmetry_Int_Tables_number       1
loop_
_symmetry_equiv_pos_as_xyz
  x,y,z
_cell_length_a                    37.746
_cell_length_b                    37.746
_cell_length_c                    37.746
_cell_angle_alpha                 90.0
_cell_angle_beta                 90.0
_cell_angle_gamma                 90.0
loop_
_atom_site_label
_atom_site_type_symbol
_atom_site_fract_x
_atom_site_fract_y
_atom_site_fract_z
Er1     Er     0.186   0.314   0.0
Er2     Er     0.186   0.314   0.5
Er3     Er     0.186   0.814   0.0
Er4     Er     0.186   0.814   0.5
Er5     Er     0.686   0.314   0.0
Er6     Er     0.686   0.314   0.5
Er7     Er     0.686   0.814   0.0
Er8     Er     0.686   0.814   0.5
Er9     Er     0.314   0.314   0.0
Er10     Er     0.314   0.314   0.5
Er11     Er     0.314   0.814   0.0
Er12     Er     0.314   0.814   0.5
Er13     Er     0.814   0.314   0.0
Er14     Er     0.814   0.314   0.5
Er15     Er     0.814   0.814   0.0
Er16     Er     0.814   0.814   0.5
Er17     Er     0.186   0.186   0.0
Er18     Er     0.186   0.186   0.5
Er19     Er     0.186   0.686   0.0
Er20     Er     0.186   0.686   0.5
Er21     Er     0.686   0.186   0.0
Er22     Er     0.686   0.186   0.5
Er23     Er     0.686   0.686   0.0
Er24     Er     0.686   0.686   0.5
Er25     Er     0.314   0.186   0.0
Er26     Er     0.314   0.186   0.5
Er27     Er     0.314   0.686   0.0
Er28     Er     0.314   0.686   0.5
Er29     Er     0.814   0.186   0.0
Er30     Er     0.814   0.186   0.5
Er31     Er     0.814   0.686   0.0
Er32     Er     0.814   0.686   0.5
Er33     Er     0.314   0.0   0.186
Er34     Er     0.314   0.0   0.686
Er35     Er     0.314   0.5   0.186
Er36     Er     0.314   0.5   0.686
Er37     Er     0.814   0.0   0.186
Er38     Er     0.814   0.0   0.686
Er39     Er     0.814   0.5   0.186
Er40     Er     0.814   0.5   0.686
Er41     Er     0.314   0.0   0.314
Er42     Er     0.314   0.0   0.814
Er43     Er     0.314   0.5   0.314
Er44     Er     0.314   0.5   0.814
Er45     Er     0.814   0.0   0.314
Er46     Er     0.814   0.0   0.814
Er47     Er     0.814   0.5   0.314
Er48     Er     0.814   0.5   0.814
Er49     Er     0.186   0.0   0.186
Er50     Er     0.186   0.0   0.686
Er51     Er     0.186   0.5   0.186
Er52     Er     0.186   0.5   0.686
Er53     Er     0.686   0.0   0.186
Er54     Er     0.686   0.0   0.686
Er55     Er     0.686   0.5   0.186
Er56     Er     0.686   0.5   0.686
Er57     Er     0.186   0.0   0.314
Er58     Er     0.186   0.0   0.814
Er59     Er     0.186   0.5   0.314
Er60     Er     0.186   0.5   0.814
Er61     Er     0.686   0.0   0.314
Er62     Er     0.686   0.0   0.814
Er63     Er     0.686   0.5   0.314
Er64     Er     0.686   0.5   0.814
Er65     Er     0.0   0.314   0.186
Er66     Er     0.0   0.314   0.686
Er67     Er     0.0   0.814   0.186
Er68     Er     0.0   0.814   0.686
Er69     Er     0.5   0.314   0.186
Er70     Er     0.5   0.314   0.686
Er71     Er     0.5   0.814   0.186
Er72     Er     0.5   0.814   0.686
Er73     Er     0.0   0.314   0.314
Er74     Er     0.0   0.314   0.814
Er75     Er     0.0   0.814   0.314
Er76     Er     0.0   0.814   0.814
Er77     Er     0.5   0.314   0.314
Er78     Er     0.5   0.314   0.814
Er79     Er     0.5   0.814   0.314
Er80     Er     0.5   0.814   0.814
Er81     Er     0.0   0.186   0.186
Er82     Er     0.0   0.186   0.686
Er83     Er     0.0   0.686   0.186
Er84     Er     0.0   0.686   0.686
Er85     Er     0.5   0.186   0.186
Er86     Er     0.5   0.186   0.686
Er87     Er     0.5   0.686   0.186
Er88     Er     0.5   0.686   0.686
Er89     Er     0.0   0.186   0.314
Er90     Er     0.0   0.186   0.814
Er91     Er     0.0   0.686   0.314
Er92     Er     0.0   0.686   0.814
Er93     Er     0.5   0.186   0.314
Er94     Er     0.5   0.186   0.814
Er95     Er     0.5   0.686   0.314
Er96     Er     0.5   0.686   0.814
V97     V     0.0   0.0   0.0
V98     V     0.0   0.0   0.5
V99     V     0.0   0.5   0.0
V100     V     0.0   0.5   0.5
V101     V     0.5   0.0   0.0
V102     V     0.5   0.0   0.5
V103     V     0.5   0.5   0.0
V104     V     0.5   0.5   0.5
Er105     Er     0.436   0.064   0.25
Er106     Er     0.436   0.064   0.75
Er107     Er     0.436   0.564   0.25
Er108     Er     0.436   0.564   0.75
Er109     Er     0.936   0.064   0.25
Er110     Er     0.936   0.064   0.75
Er111     Er     0.936   0.564   0.25
Er112     Er     0.936   0.564   0.75
Er113     Er     0.064   0.064   0.25
Er114     Er     0.064   0.064   0.75
Er115     Er     0.064   0.564   0.25
Er116     Er     0.064   0.564   0.75
Er117     Er     0.564   0.064   0.25
Er118     Er     0.564   0.064   0.75
Er119     Er     0.564   0.564   0.25
Er120     Er     0.564   0.564   0.75
Er121     Er     0.436   0.436   0.25
Er122     Er     0.436   0.436   0.75
Er123     Er     0.436   0.936   0.25
Er124     Er     0.436   0.936   0.75
Er125     Er     0.936   0.436   0.25
Er126     Er     0.936   0.436   0.75
Er127     Er     0.936   0.936   0.25
Er128     Er     0.936   0.936   0.75
Er129     Er     0.064   0.436   0.25
Er130     Er     0.064   0.436   0.75
Er131     Er     0.064   0.936   0.25
Er132     Er     0.064   0.936   0.75
Er133     Er     0.564   0.436   0.25
Er134     Er     0.564   0.436   0.75
Er135     Er     0.564   0.936   0.25
Er136     Er     0.564   0.936   0.75
Er137     Er     0.064   0.25   0.436
Er138     Er     0.064   0.25   0.936
Er139     Er     0.064   0.75   0.436
Er140     Er     0.064   0.75   0.936
Er141     Er     0.564   0.25   0.436
Er142     Er     0.564   0.25   0.936
Er143     Er     0.564   0.75   0.436
Er144     Er     0.564   0.75   0.936
Er145     Er     0.064   0.25   0.064
Er146     Er     0.064   0.25   0.564
Er147     Er     0.064   0.75   0.064
Er148     Er     0.064   0.75   0.564
Er149     Er     0.564   0.25   0.064
Er150     Er     0.564   0.25   0.564
Er151     Er     0.564   0.75   0.064
Er152     Er     0.564   0.75   0.564
Er153     Er     0.436   0.25   0.436
Er154     Er     0.436   0.25   0.936
Er155     Er     0.436   0.75   0.436
Er156     Er     0.436   0.75   0.936
Er157     Er     0.936   0.25   0.436
Er158     Er     0.936   0.25   0.936
Er159     Er     0.936   0.75   0.436
Er160     Er     0.936   0.75   0.936
Er161     Er     0.436   0.25   0.064
Er162     Er     0.436   0.25   0.564
Er163     Er     0.436   0.75   0.064
Er164     Er     0.436   0.75   0.564
Er165     Er     0.936   0.25   0.064
Er166     Er     0.936   0.25   0.564
Er167     Er     0.936   0.75   0.064
Er168     Er     0.936   0.75   0.564
Er169     Er     0.25   0.436   0.436
Er170     Er     0.25   0.436   0.936
Er171     Er     0.25   0.936   0.436
Er172     Er     0.25   0.936   0.936
Er173     Er     0.75   0.436   0.436
Er174     Er     0.75   0.436   0.936
Er175     Er     0.75   0.936   0.436
Er176     Er     0.75   0.936   0.936
Er177     Er     0.25   0.064   0.436
Er178     Er     0.25   0.064   0.936
Er179     Er     0.25   0.564   0.436
Er180     Er     0.25   0.564   0.936
Er181     Er     0.75   0.064   0.436
Er182     Er     0.75   0.064   0.936
Er183     Er     0.75   0.564   0.436
Er184     Er     0.75   0.564   0.936
Er185     Er     0.25   0.064   0.064
Er186     Er     0.25   0.064   0.564
Er187     Er     0.25   0.564   0.064
Er188     Er     0.25   0.564   0.564
Er189     Er     0.75   0.064   0.064
Er190     Er     0.75   0.064   0.564
Er191     Er     0.75   0.564   0.064
Er192     Er     0.75   0.564   0.564
Er193     Er     0.25   0.436   0.064
Er194     Er     0.25   0.436   0.564
Er195     Er     0.25   0.936   0.064
Er196     Er     0.25   0.936   0.564
Er197     Er     0.75   0.436   0.064
Er198     Er     0.75   0.436   0.564
Er199     Er     0.75   0.936   0.064
Er200     Er     0.75   0.936   0.564
V201     V     0.25   0.25   0.25
V202     V     0.25   0.25   0.75
V203     V     0.25   0.75   0.25
V204     V     0.25   0.75   0.75
V205     V     0.75   0.25   0.25
V206     V     0.75   0.25   0.75
V207     V     0.75   0.75   0.25
V208     V     0.75   0.75   0.75
loop_
_geom_bond_atom_site_label_1
_geom_bond_atom_site_label_2
_geom_bond_distance
_geom_bond_site_symmetry_2
_ccdc_geom_bond_type
Er1     V99    9.927   .     S
Er1     V202    10.037   1_554     S
Er1     V201    10.037   .     S
Er2     V100    9.927   .     S
Er2     V201    10.037   .     S
Er2     V202    10.037   .     S
Er3     V97    9.927   1_565     S
Er3     V204    10.037   1_554     S
Er3     V203    10.037   .     S
Er4     V98    9.927   1_565     S
Er4     V203    10.037   .     S
Er4     V204    10.037   .     S
Er5     V103    9.927   .     S
Er5     V206    10.037   1_554     S
Er5     V205    10.037   .     S
Er6     V104    9.927   .     S
Er6     V205    10.037   .     S
Er6     V206    10.037   .     S
Er7     V101    9.927   1_565     S
Er7     V208    10.037   1_554     S
Er7     V207    10.037   .     S
Er8     V102    9.927   1_565     S
Er8     V207    10.037   .     S
Er8     V208    10.037   .     S
Er9     V103    9.927   .     S
Er9     V202    10.037   1_554     S
Er9     V201    10.037   .     S
Er10     V104    9.927   .     S
Er10     V201    10.037   .     S
Er10     V202    10.037   .     S
Er11     V101    9.927   1_565     S
Er11     V204    10.037   1_554     S
Er11     V203    10.037   .     S
Er12     V102    9.927   1_565     S
Er12     V203    10.037   .     S
Er12     V204    10.037   .     S
Er13     V99    9.927   1_655     S
Er13     V206    10.037   1_554     S
Er13     V205    10.037   .     S
Er14     V100    9.927   1_655     S
Er14     V205    10.037   .     S
Er14     V206    10.037   .     S
Er15     V97    9.927   1_665     S
Er15     V208    10.037   1_554     S
Er15     V207    10.037   .     S
Er16     V98    9.927   1_665     S
Er16     V207    10.037   .     S
Er16     V208    10.037   .     S
Er17     V97    9.927   .     S
Er17     V202    10.037   1_554     S
Er17     V201    10.037   .     S
Er18     V98    9.927   .     S
Er18     V201    10.037   .     S
Er18     V202    10.037   .     S
Er19     V99    9.927   .     S
Er19     V204    10.037   1_554     S
Er19     V203    10.037   .     S
Er20     V100    9.927   .     S
Er20     V203    10.037   .     S
Er20     V204    10.037   .     S
Er21     V101    9.927   .     S
Er21     V206    10.037   1_554     S
Er21     V205    10.037   .     S
Er22     V102    9.927   .     S
Er22     V205    10.037   .     S
Er22     V206    10.037   .     S
Er23     V103    9.927   .     S
Er23     V208    10.037   1_554     S
Er23     V207    10.037   .     S
Er24     V104    9.927   .     S
Er24     V207    10.037   .     S
Er24     V208    10.037   .     S
Er25     V101    9.927   .     S
Er25     V202    10.037   1_554     S
Er25     V201    10.037   .     S
Er26     V102    9.927   .     S
Er26     V201    10.037   .     S
Er26     V202    10.037   .     S
Er27     V103    9.927   .     S
Er27     V204    10.037   1_554     S
Er27     V203    10.037   .     S
Er28     V104    9.927   .     S
Er28     V203    10.037   .     S
Er28     V204    10.037   .     S
Er29     V97    9.927   1_655     S
Er29     V206    10.037   1_554     S
Er29     V205    10.037   .     S
Er30     V98    9.927   1_655     S
Er30     V205    10.037   .     S
Er30     V206    10.037   .     S
Er31     V99    9.927   1_655     S
Er31     V208    10.037   1_554     S
Er31     V207    10.037   .     S
Er32     V100    9.927   1_655     S
Er32     V207    10.037   .     S
Er32     V208    10.037   .     S
Er33     V101    9.927   .     S
Er33     V201    10.037   .     S
Er33     V203    10.037   1_545     S
Er34     V102    9.927   .     S
Er34     V202    10.037   .     S
Er34     V204    10.037   1_545     S
Er35     V103    9.927   .     S
Er35     V203    10.037   .     S
Er35     V201    10.037   .     S
Er36     V104    9.927   .     S
Er36     V204    10.037   .     S
Er36     V202    10.037   .     S
Er37     V97    9.927   1_655     S
Er37     V205    10.037   .     S
Er37     V207    10.037   1_545     S
Er38     V98    9.927   1_655     S
Er38     V206    10.037   .     S
Er38     V208    10.037   1_545     S
Er39     V99    9.927   1_655     S
Er39     V207    10.037   .     S
Er39     V205    10.037   .     S
Er40     V100    9.927   1_655     S
Er40     V208    10.037   .     S
Er40     V206    10.037   .     S
Er41     V102    9.927   .     S
Er41     V201    10.037   .     S
Er41     V203    10.037   1_545     S
Er42     V101    9.927   1_556     S
Er42     V202    10.037   .     S
Er42     V204    10.037   1_545     S
Er43     V104    9.927   .     S
Er43     V203    10.037   .     S
Er43     V201    10.037   .     S
Er44     V103    9.927   1_556     S
Er44     V204    10.037   .     S
Er44     V202    10.037   .     S
Er45     V98    9.927   1_655     S
Er45     V205    10.037   .     S
Er45     V207    10.037   1_545     S
Er46     V97    9.927   1_656     S
Er46     V206    10.037   .     S
Er46     V208    10.037   1_545     S
Er47     V100    9.927   1_655     S
Er47     V207    10.037   .     S
Er47     V205    10.037   .     S
Er48     V99    9.927   1_656     S
Er48     V208    10.037   .     S
Er48     V206    10.037   .     S
Er49     V97    9.927   .     S
Er49     V201    10.037   .     S
Er49     V203    10.037   1_545     S
Er50     V98    9.927   .     S
Er50     V202    10.037   .     S
Er50     V204    10.037   1_545     S
Er51     V99    9.927   .     S
Er51     V203    10.037   .     S
Er51     V201    10.037   .     S
Er52     V100    9.927   .     S
Er52     V204    10.037   .     S
Er52     V202    10.037   .     S
Er53     V101    9.927   .     S
Er53     V205    10.037   .     S
Er53     V207    10.037   1_545     S
Er54     V102    9.927   .     S
Er54     V206    10.037   .     S
Er54     V208    10.037   1_545     S
Er55     V103    9.927   .     S
Er55     V207    10.037   .     S
Er55     V205    10.037   .     S
Er56     V104    9.927   .     S
Er56     V208    10.037   .     S
Er56     V206    10.037   .     S
Er57     V98    9.927   .     S
Er57     V201    10.037   .     S
Er57     V203    10.037   1_545     S
Er58     V97    9.927   1_556     S
Er58     V202    10.037   .     S
Er58     V204    10.037   1_545     S
Er59     V100    9.927   .     S
Er59     V203    10.037   .     S
Er59     V201    10.037   .     S
Er60     V99    9.927   1_556     S
Er60     V204    10.037   .     S
Er60     V202    10.037   .     S
Er61     V102    9.927   .     S
Er61     V205    10.037   .     S
Er61     V207    10.037   1_545     S
Er62     V101    9.927   1_556     S
Er62     V206    10.037   .     S
Er62     V208    10.037   1_545     S
Er63     V104    9.927   .     S
Er63     V207    10.037   .     S
Er63     V205    10.037   .     S
Er64     V103    9.927   1_556     S
Er64     V208    10.037   .     S
Er64     V206    10.037   .     S
Er65     V99    9.927   .     S
Er65     V201    10.037   .     S
Er65     V205    10.037   1_455     S
Er66     V100    9.927   .     S
Er66     V202    10.037   .     S
Er66     V206    10.037   1_455     S
Er67     V97    9.927   1_565     S
Er67     V203    10.037   .     S
Er67     V207    10.037   1_455     S
Er68     V98    9.927   1_565     S
Er68     V204    10.037   .     S
Er68     V208    10.037   1_455     S
Er69     V103    9.927   .     S
Er69     V205    10.037   .     S
Er69     V201    10.037   .     S
Er70     V104    9.927   .     S
Er70     V206    10.037   .     S
Er70     V202    10.037   .     S
Er71     V101    9.927   1_565     S
Er71     V207    10.037   .     S
Er71     V203    10.037   .     S
Er72     V102    9.927   1_565     S
Er72     V208    10.037   .     S
Er72     V204    10.037   .     S
Er73     V100    9.927   .     S
Er73     V201    10.037   .     S
Er73     V205    10.037   1_455     S
Er74     V99    9.927   1_556     S
Er74     V202    10.037   .     S
Er74     V206    10.037   1_455     S
Er75     V98    9.927   1_565     S
Er75     V203    10.037   .     S
Er75     V207    10.037   1_455     S
Er76     V97    9.927   1_566     S
Er76     V204    10.037   .     S
Er76     V208    10.037   1_455     S
Er77     V104    9.927   .     S
Er77     V205    10.037   .     S
Er77     V201    10.037   .     S
Er78     V103    9.927   1_556     S
Er78     V206    10.037   .     S
Er78     V202    10.037   .     S
Er79     V102    9.927   1_565     S
Er79     V207    10.037   .     S
Er79     V203    10.037   .     S
Er80     V101    9.927   1_566     S
Er80     V208    10.037   .     S
Er80     V204    10.037   .     S
Er81     V97    9.927   .     S
Er81     V201    10.037   .     S
Er81     V205    10.037   1_455     S
Er82     V98    9.927   .     S
Er82     V202    10.037   .     S
Er82     V206    10.037   1_455     S
Er83     V99    9.927   .     S
Er83     V203    10.037   .     S
Er83     V207    10.037   1_455     S
Er84     V100    9.927   .     S
Er84     V204    10.037   .     S
Er84     V208    10.037   1_455     S
Er85     V101    9.927   .     S
Er85     V205    10.037   .     S
Er85     V201    10.037   .     S
Er86     V102    9.927   .     S
Er86     V206    10.037   .     S
Er86     V202    10.037   .     S
Er87     V103    9.927   .     S
Er87     V207    10.037   .     S
Er87     V203    10.037   .     S
Er88     V104    9.927   .     S
Er88     V208    10.037   .     S
Er88     V204    10.037   .     S
Er89     V98    9.927   .     S
Er89     V201    10.037   .     S
Er89     V205    10.037   1_455     S
Er90     V97    9.927   1_556     S
Er90     V202    10.037   .     S
Er90     V206    10.037   1_455     S
Er91     V100    9.927   .     S
Er91     V203    10.037   .     S
Er91     V207    10.037   1_455     S
Er92     V99    9.927   1_556     S
Er92     V204    10.037   .     S
Er92     V208    10.037   1_455     S
Er93     V102    9.927   .     S
Er93     V205    10.037   .     S
Er93     V201    10.037   .     S
Er94     V101    9.927   1_556     S
Er94     V206    10.037   .     S
Er94     V202    10.037   .     S
Er95     V104    9.927   .     S
Er95     V207    10.037   .     S
Er95     V203    10.037   .     S
Er96     V103    9.927   1_556     S
Er96     V208    10.037   .     S
Er96     V204    10.037   .     S
V97     Er58    9.927   1_554     S
V97     Er90    9.927   1_554     S
V97     Er67    9.927   1_545     S
V97     Er3    9.927   1_545     S
V97     Er37    9.927   1_455     S
V97     Er29    9.927   1_455     S
V97     Er76    9.927   1_544     S
V97     Er46    9.927   1_454     S
V97     Er15    9.927   1_445     S
V97     Er132    10.037   1_544     S
V97     Er114    10.037   1_554     S
V97     Er110    10.037   1_454     S
V97     Er128    10.037   1_444     S
V97     Er147    10.037   1_545     S
V97     Er140    10.037   1_544     S
V97     Er160    10.037   1_444     S
V97     Er167    10.037   1_445     S
V97     Er165    10.037   1_455     S
V97     Er145    10.037   .     S
V97     Er138    10.037   1_554     S
V97     Er158    10.037   1_454     S
V97     Er185    10.037   .     S
V97     Er178    10.037   1_554     S
V97     Er172    10.037   1_544     S
V97     Er195    10.037   1_545     S
V97     Er113    10.037   .     S
V97     Er109    10.037   1_455     S
V97     Er127    10.037   1_445     S
V97     Er131    10.037   1_545     S
V97     Er199    10.037   1_445     S
V97     Er176    10.037   1_444     S
V97     Er182    10.037   1_454     S
V97     Er189    10.037   1_455     S
V98     Er68    9.927   1_545     S
V98     Er4    9.927   1_545     S
V98     Er38    9.927   1_455     S
V98     Er30    9.927   1_455     S
V98     Er75    9.927   1_545     S
V98     Er45    9.927   1_455     S
V98     Er16    9.927   1_445     S
V98     Er131    10.037   1_545     S
V98     Er113    10.037   .     S
V98     Er109    10.037   1_455     S
V98     Er127    10.037   1_445     S
V98     Er148    10.037   1_545     S
V98     Er139    10.037   1_545     S
V98     Er159    10.037   1_445     S
V98     Er168    10.037   1_445     S
V98     Er166    10.037   1_455     S
V98     Er146    10.037   .     S
V98     Er137    10.037   .     S
V98     Er157    10.037   1_455     S
V98     Er186    10.037   .     S
V98     Er177    10.037   .     S
V98     Er171    10.037   1_545     S
V98     Er196    10.037   1_545     S
V98     Er114    10.037   .     S
V98     Er110    10.037   1_455     S
V98     Er128    10.037   1_445     S
V98     Er132    10.037   1_545     S
V98     Er200    10.037   1_445     S
V98     Er175    10.037   1_445     S
V98     Er181    10.037   1_455     S
V98     Er190    10.037   1_455     S
V99     Er60    9.927   1_554     S
V99     Er92    9.927   1_554     S
V99     Er39    9.927   1_455     S
V99     Er31    9.927   1_455     S
V99     Er74    9.927   1_554     S
V99     Er48    9.927   1_454     S
V99     Er13    9.927   1_455     S
V99     Er130    10.037   1_554     S
V99     Er116    10.037   1_554     S
V99     Er112    10.037   1_454     S
V99     Er126    10.037   1_454     S
V99     Er145    10.037   .     S
V99     Er138    10.037   1_554     S
V99     Er158    10.037   1_454     S
V99     Er165    10.037   1_455     S
V99     Er167    10.037   1_455     S
V99     Er147    10.037   .     S
V99     Er140    10.037   1_554     S
V99     Er160    10.037   1_454     S
V99     Er187    10.037   .     S
V99     Er180    10.037   1_554     S
V99     Er170    10.037   1_554     S
V99     Er193    10.037   .     S
V99     Er115    10.037   .     S
V99     Er111    10.037   1_455     S
V99     Er125    10.037   1_455     S
V99     Er129    10.037   .     S
V99     Er197    10.037   1_455     S
V99     Er174    10.037   1_454     S
V99     Er184    10.037   1_454     S
V99     Er191    10.037   1_455     S
V100     Er40    9.927   1_455     S
V100     Er32    9.927   1_455     S
V100     Er47    9.927   1_455     S
V100     Er14    9.927   1_455     S
V100     Er129    10.037   .     S
V100     Er115    10.037   .     S
V100     Er111    10.037   1_455     S
V100     Er125    10.037   1_455     S
V100     Er146    10.037   .     S
V100     Er137    10.037   .     S
V100     Er157    10.037   1_455     S
V100     Er166    10.037   1_455     S
V100     Er168    10.037   1_455     S
V100     Er148    10.037   .     S
V100     Er139    10.037   .     S
V100     Er159    10.037   1_455     S
V100     Er188    10.037   .     S
V100     Er179    10.037   .     S
V100     Er169    10.037   .     S
V100     Er194    10.037   .     S
V100     Er116    10.037   .     S
V100     Er112    10.037   1_455     S
V100     Er126    10.037   1_455     S
V100     Er130    10.037   .     S
V100     Er198    10.037   1_455     S
V100     Er173    10.037   1_455     S
V100     Er183    10.037   1_455     S
V100     Er192    10.037   1_455     S
V101     Er62    9.927   1_554     S
V101     Er94    9.927   1_554     S
V101     Er71    9.927   1_545     S
V101     Er7    9.927   1_545     S
V101     Er80    9.927   1_544     S
V101     Er42    9.927   1_554     S
V101     Er11    9.927   1_545     S
V101     Er136    10.037   1_544     S
V101     Er118    10.037   1_554     S
V101     Er106    10.037   1_554     S
V101     Er124    10.037   1_544     S
V101     Er151    10.037   1_545     S
V101     Er144    10.037   1_544     S
V101     Er156    10.037   1_544     S
V101     Er163    10.037   1_545     S
V101     Er161    10.037   .     S
V101     Er149    10.037   .     S
V101     Er142    10.037   1_554     S
V101     Er154    10.037   1_554     S
V101     Er189    10.037   .     S
V101     Er182    10.037   1_554     S
V101     Er176    10.037   1_544     S
V101     Er199    10.037   1_545     S
V101     Er117    10.037   .     S
V101     Er105    10.037   .     S
V101     Er123    10.037   1_545     S
V101     Er135    10.037   1_545     S
V101     Er195    10.037   1_545     S
V101     Er172    10.037   1_544     S
V101     Er178    10.037   1_554     S
V101     Er185    10.037   .     S
V102     Er72    9.927   1_545     S
V102     Er8    9.927   1_545     S
V102     Er79    9.927   1_545     S
V102     Er12    9.927   1_545     S
V102     Er135    10.037   1_545     S
V102     Er117    10.037   .     S
V102     Er105    10.037   .     S
V102     Er123    10.037   1_545     S
V102     Er152    10.037   1_545     S
V102     Er143    10.037   1_545     S
V102     Er155    10.037   1_545     S
V102     Er164    10.037   1_545     S
V102     Er162    10.037   .     S
V102     Er150    10.037   .     S
V102     Er141    10.037   .     S
V102     Er153    10.037   .     S
V102     Er190    10.037   .     S
V102     Er181    10.037   .     S
V102     Er175    10.037   1_545     S
V102     Er200    10.037   1_545     S
V102     Er118    10.037   .     S
V102     Er106    10.037   .     S
V102     Er124    10.037   1_545     S
V102     Er136    10.037   1_545     S
V102     Er196    10.037   1_545     S
V102     Er171    10.037   1_545     S
V102     Er177    10.037   .     S
V102     Er186    10.037   .     S
V103     Er64    9.927   1_554     S
V103     Er96    9.927   1_554     S
V103     Er78    9.927   1_554     S
V103     Er44    9.927   1_554     S
V103     Er134    10.037   1_554     S
V103     Er120    10.037   1_554     S
V103     Er108    10.037   1_554     S
V103     Er122    10.037   1_554     S
V103     Er149    10.037   .     S
V103     Er142    10.037   1_554     S
V103     Er154    10.037   1_554     S
V103     Er161    10.037   .     S
V103     Er163    10.037   .     S
V103     Er151    10.037   .     S
V103     Er144    10.037   1_554     S
V103     Er156    10.037   1_554     S
V103     Er191    10.037   .     S
V103     Er184    10.037   1_554     S
V103     Er174    10.037   1_554     S
V103     Er197    10.037   .     S
V103     Er119    10.037   .     S
V103     Er107    10.037   .     S
V103     Er121    10.037   .     S
V103     Er133    10.037   .     S
V103     Er193    10.037   .     S
V103     Er170    10.037   1_554     S
V103     Er180    10.037   1_554     S
V103     Er187    10.037   .     S
V104     Er133    10.037   .     S
V104     Er119    10.037   .     S
V104     Er107    10.037   .     S
V104     Er121    10.037   .     S
V104     Er150    10.037   .     S
V104     Er141    10.037   .     S
V104     Er153    10.037   .     S
V104     Er162    10.037   .     S
V104     Er164    10.037   .     S
V104     Er152    10.037   .     S
V104     Er143    10.037   .     S
V104     Er155    10.037   .     S
V104     Er192    10.037   .     S
V104     Er183    10.037   .     S
V104     Er173    10.037   .     S
V104     Er198    10.037   .     S
V104     Er120    10.037   .     S
V104     Er108    10.037   .     S
V104     Er122    10.037   .     S
V104     Er134    10.037   .     S
V104     Er194    10.037   .     S
V104     Er169    10.037   .     S
V104     Er179    10.037   .     S
V104     Er188    10.037   .     S
Er105     V201    9.927   .     S
Er106     V202    9.927   .     S
Er106     V101    10.037   1_556     S
Er107     V203    9.927   .     S
Er108     V204    9.927   .     S
Er108     V103    10.037   1_556     S
Er109     V205    9.927   .     S
Er109     V98    10.037   1_655     S
Er109     V97    10.037   1_655     S
Er110     V206    9.927   .     S
Er110     V97    10.037   1_656     S
Er110     V98    10.037   1_655     S
Er111     V207    9.927   .     S
Er111     V100    10.037   1_655     S
Er111     V99    10.037   1_655     S
Er112     V208    9.927   .     S
Er112     V99    10.037   1_656     S
Er112     V100    10.037   1_655     S
Er113     V201    9.927   .     S
Er114     V202    9.927   .     S
Er114     V97    10.037   1_556     S
Er115     V203    9.927   .     S
Er116     V204    9.927   .     S
Er116     V99    10.037   1_556     S
Er117     V205    9.927   .     S
Er118     V206    9.927   .     S
Er118     V101    10.037   1_556     S
Er119     V207    9.927   .     S
Er120     V208    9.927   .     S
Er120     V103    10.037   1_556     S
Er121     V201    9.927   .     S
Er122     V202    9.927   .     S
Er122     V103    10.037   1_556     S
Er123     V203    9.927   .     S
Er123     V102    10.037   1_565     S
Er123     V101    10.037   1_565     S
Er124     V204    9.927   .     S
Er124     V101    10.037   1_566     S
Er124     V102    10.037   1_565     S
Er125     V205    9.927   .     S
Er125     V100    10.037   1_655     S
Er125     V99    10.037   1_655     S
Er126     V206    9.927   .     S
Er126     V99    10.037   1_656     S
Er126     V100    10.037   1_655     S
Er127     V207    9.927   .     S
Er127     V98    10.037   1_665     S
Er127     V97    10.037   1_665     S
Er128     V208    9.927   .     S
Er128     V97    10.037   1_666     S
Er128     V98    10.037   1_665     S
Er129     V201    9.927   .     S
Er130     V202    9.927   .     S
Er130     V99    10.037   1_556     S
Er131     V203    9.927   .     S
Er131     V98    10.037   1_565     S
Er131     V97    10.037   1_565     S
Er132     V204    9.927   .     S
Er132     V97    10.037   1_566     S
Er132     V98    10.037   1_565     S
Er133     V205    9.927   .     S
Er134     V206    9.927   .     S
Er134     V103    10.037   1_556     S
Er135     V207    9.927   .     S
Er135     V102    10.037   1_565     S
Er135     V101    10.037   1_565     S
Er136     V208    9.927   .     S
Er136     V101    10.037   1_566     S
Er136     V102    10.037   1_565     S
Er137     V201    9.927   .     S
Er138     V202    9.927   .     S
Er138     V99    10.037   1_556     S
Er138     V97    10.037   1_556     S
Er139     V203    9.927   .     S
Er139     V98    10.037   1_565     S
Er140     V204    9.927   .     S
Er140     V97    10.037   1_566     S
Er140     V99    10.037   1_556     S
Er141     V205    9.927   .     S
Er142     V206    9.927   .     S
Er142     V103    10.037   1_556     S
Er142     V101    10.037   1_556     S
Er143     V207    9.927   .     S
Er143     V102    10.037   1_565     S
Er144     V208    9.927   .     S
Er144     V101    10.037   1_566     S
Er144     V103    10.037   1_556     S
Er145     V201    9.927   .     S
Er146     V202    9.927   .     S
Er147     V203    9.927   .     S
Er147     V97    10.037   1_565     S
Er148     V204    9.927   .     S
Er148     V98    10.037   1_565     S
Er149     V205    9.927   .     S
Er150     V206    9.927   .     S
Er151     V207    9.927   .     S
Er151     V101    10.037   1_565     S
Er152     V208    9.927   .     S
Er152     V102    10.037   1_565     S
Er153     V201    9.927   .     S
Er154     V202    9.927   .     S
Er154     V103    10.037   1_556     S
Er154     V101    10.037   1_556     S
Er155     V203    9.927   .     S
Er155     V102    10.037   1_565     S
Er156     V204    9.927   .     S
Er156     V101    10.037   1_566     S
Er156     V103    10.037   1_556     S
Er157     V205    9.927   .     S
Er157     V100    10.037   1_655     S
Er157     V98    10.037   1_655     S
Er158     V206    9.927   .     S
Er158     V99    10.037   1_656     S
Er158     V97    10.037   1_656     S
Er159     V207    9.927   .     S
Er159     V98    10.037   1_665     S
Er159     V100    10.037   1_655     S
Er160     V208    9.927   .     S
Er160     V97    10.037   1_666     S
Er160     V99    10.037   1_656     S
Er161     V201    9.927   .     S
Er162     V202    9.927   .     S
Er163     V203    9.927   .     S
Er163     V101    10.037   1_565     S
Er164     V204    9.927   .     S
Er164     V102    10.037   1_565     S
Er165     V205    9.927   .     S
Er165     V99    10.037   1_655     S
Er165     V97    10.037   1_655     S
Er166     V206    9.927   .     S
Er166     V100    10.037   1_655     S
Er166     V98    10.037   1_655     S
Er167     V207    9.927   .     S
Er167     V97    10.037   1_665     S
Er167     V99    10.037   1_655     S
Er168     V208    9.927   .     S
Er168     V98    10.037   1_665     S
Er168     V100    10.037   1_655     S
Er169     V201    9.927   .     S
Er170     V202    9.927   .     S
Er170     V99    10.037   1_556     S
Er170     V103    10.037   1_556     S
Er171     V203    9.927   .     S
Er171     V98    10.037   1_565     S
Er171     V102    10.037   1_565     S
Er172     V204    9.927   .     S
Er172     V97    10.037   1_566     S
Er172     V101    10.037   1_566     S
Er173     V205    9.927   .     S
Er173     V100    10.037   1_655     S
Er174     V206    9.927   .     S
Er174     V103    10.037   1_556     S
Er174     V99    10.037   1_656     S
Er175     V207    9.927   .     S
Er175     V102    10.037   1_565     S
Er175     V98    10.037   1_665     S
Er176     V208    9.927   .     S
Er176     V101    10.037   1_566     S
Er176     V97    10.037   1_666     S
Er177     V201    9.927   .     S
Er178     V202    9.927   .     S
Er178     V97    10.037   1_556     S
Er178     V101    10.037   1_556     S
Er179     V203    9.927   .     S
Er180     V204    9.927   .     S
Er180     V99    10.037   1_556     S
Er180     V103    10.037   1_556     S
Er181     V205    9.927   .     S
Er181     V98    10.037   1_655     S
Er182     V206    9.927   .     S
Er182     V101    10.037   1_556     S
Er182     V97    10.037   1_656     S
Er183     V207    9.927   .     S
Er183     V100    10.037   1_655     S
Er184     V208    9.927   .     S
Er184     V103    10.037   1_556     S
Er184     V99    10.037   1_656     S
Er185     V201    9.927   .     S
Er186     V202    9.927   .     S
Er187     V203    9.927   .     S
Er188     V204    9.927   .     S
Er189     V205    9.927   .     S
Er189     V97    10.037   1_655     S
Er190     V206    9.927   .     S
Er190     V98    10.037   1_655     S
Er191     V207    9.927   .     S
Er191     V99    10.037   1_655     S
Er192     V208    9.927   .     S
Er192     V100    10.037   1_655     S
Er193     V201    9.927   .     S
Er194     V202    9.927   .     S
Er195     V203    9.927   .     S
Er195     V97    10.037   1_565     S
Er195     V101    10.037   1_565     S
Er196     V204    9.927   .     S
Er196     V98    10.037   1_565     S
Er196     V102    10.037   1_565     S
Er197     V205    9.927   .     S
Er197     V99    10.037   1_655     S
Er198     V206    9.927   .     S
Er198     V100    10.037   1_655     S
Er199     V207    9.927   .     S
Er199     V101    10.037   1_565     S
Er199     V97    10.037   1_665     S
Er200     V208    9.927   .     S
Er200     V102    10.037   1_565     S
Er200     V98    10.037   1_665     S
V202     Er9    10.037   1_556     S
V202     Er1    10.037   1_556     S
V202     Er17    10.037   1_556     S
V202     Er25    10.037   1_556     S
V203     Er57    10.037   1_565     S
V203     Er41    10.037   1_565     S
V203     Er33    10.037   1_565     S
V203     Er49    10.037   1_565     S
V204     Er58    10.037   1_565     S
V204     Er42    10.037   1_565     S
V204     Er34    10.037   1_565     S
V204     Er50    10.037   1_565     S
V204     Er11    10.037   1_556     S
V204     Er3    10.037   1_556     S
V204     Er19    10.037   1_556     S
V204     Er27    10.037   1_556     S
V205     Er81    10.037   1_655     S
V205     Er65    10.037   1_655     S
V205     Er73    10.037   1_655     S
V205     Er89    10.037   1_655     S
V206     Er13    10.037   1_556     S
V206     Er5    10.037   1_556     S
V206     Er21    10.037   1_556     S
V206     Er29    10.037   1_556     S
V206     Er82    10.037   1_655     S
V206     Er66    10.037   1_655     S
V206     Er74    10.037   1_655     S
V206     Er90    10.037   1_655     S
V207     Er61    10.037   1_565     S
V207     Er45    10.037   1_565     S
V207     Er37    10.037   1_565     S
V207     Er53    10.037   1_565     S
V207     Er83    10.037   1_655     S
V207     Er67    10.037   1_655     S
V207     Er75    10.037   1_655     S
V207     Er91    10.037   1_655     S
V208     Er62    10.037   1_565     S
V208     Er46    10.037   1_565     S
V208     Er38    10.037   1_565     S
V208     Er54    10.037   1_565     S
V208     Er15    10.037   1_556     S
V208     Er7    10.037   1_556     S
V208     Er23    10.037   1_556     S
V208     Er31    10.037   1_556     S
V208     Er84    10.037   1_655     S
V208     Er68    10.037   1_655     S
V208     Er76    10.037   1_655     S
V208     Er92    10.037   1_655     S
