data_ulf
_audit_creation_date              2019-12-31
_audit_creation_method            'Pymatgen'
_symmetry_space_group_name_H-M    'P1'
_symmetry_Int_Tables_number       1
loop_
_symmetry_equiv_pos_as_xyz
  x,y,z
_cell_length_a                    33.0438
_cell_length_b                    33.0438
_cell_length_c                    33.0438
_cell_angle_alpha                 90.0
_cell_angle_beta                 90.0
_cell_angle_gamma                 90.0
loop_
_atom_site_label
_atom_site_type_symbol
_atom_site_fract_x
_atom_site_fract_y
_atom_site_fract_z
V1     V     0.4994   0.0935   0.413
V2     V     0.4994   0.0935   0.913
V3     V     0.4994   0.5935   0.413
V4     V     0.4994   0.5935   0.913
V5     V     0.9994   0.0935   0.413
V6     V     0.9994   0.0935   0.913
V7     V     0.9994   0.5935   0.413
V8     V     0.9994   0.5935   0.913
V9     V     0.0006   0.1565   0.413
V10     V     0.0006   0.1565   0.913
V11     V     0.0006   0.6565   0.413
V12     V     0.0006   0.6565   0.913
V13     V     0.5006   0.1565   0.413
V14     V     0.5006   0.1565   0.913
V15     V     0.5006   0.6565   0.413
V16     V     0.5006   0.6565   0.913
V17     V     0.462   0.2815   0.3756
V18     V     0.462   0.2815   0.8756
V19     V     0.462   0.7815   0.3756
V20     V     0.462   0.7815   0.8756
V21     V     0.962   0.2815   0.3756
V22     V     0.962   0.2815   0.8756
V23     V     0.962   0.7815   0.3756
V24     V     0.962   0.7815   0.8756
V25     V     0.462   0.2185   0.3744
V26     V     0.462   0.2185   0.8744
V27     V     0.462   0.7185   0.3744
V28     V     0.462   0.7185   0.8744
V29     V     0.962   0.2185   0.3744
V30     V     0.962   0.2185   0.8744
V31     V     0.962   0.7185   0.3744
V32     V     0.962   0.7185   0.8744
V33     V     0.4994   0.4065   0.337
V34     V     0.4994   0.4065   0.837
V35     V     0.4994   0.9065   0.337
V36     V     0.4994   0.9065   0.837
V37     V     0.9994   0.4065   0.337
V38     V     0.9994   0.4065   0.837
V39     V     0.9994   0.9065   0.337
V40     V     0.9994   0.9065   0.837
V41     V     0.0006   0.3435   0.337
V42     V     0.0006   0.3435   0.837
V43     V     0.0006   0.8435   0.337
V44     V     0.0006   0.8435   0.837
V45     V     0.5006   0.3435   0.337
V46     V     0.5006   0.3435   0.837
V47     V     0.5006   0.8435   0.337
V48     V     0.5006   0.8435   0.837
V49     V     0.038   0.4685   0.3756
V50     V     0.038   0.4685   0.8756
V51     V     0.038   0.9685   0.3756
V52     V     0.038   0.9685   0.8756
V53     V     0.538   0.4685   0.3756
V54     V     0.538   0.4685   0.8756
V55     V     0.538   0.9685   0.3756
V56     V     0.538   0.9685   0.8756
V57     V     0.038   0.0315   0.3744
V58     V     0.038   0.0315   0.8744
V59     V     0.038   0.5315   0.3744
V60     V     0.038   0.5315   0.8744
V61     V     0.538   0.0315   0.3744
V62     V     0.538   0.0315   0.8744
V63     V     0.538   0.5315   0.3744
V64     V     0.538   0.5315   0.8744
V65     V     0.212   0.0315   0.1256
V66     V     0.212   0.0315   0.6256
V67     V     0.212   0.5315   0.1256
V68     V     0.212   0.5315   0.6256
V69     V     0.712   0.0315   0.1256
V70     V     0.712   0.0315   0.6256
V71     V     0.712   0.5315   0.1256
V72     V     0.712   0.5315   0.6256
V73     V     0.212   0.4685   0.1244
V74     V     0.212   0.4685   0.6244
V75     V     0.212   0.9685   0.1244
V76     V     0.212   0.9685   0.6244
V77     V     0.712   0.4685   0.1244
V78     V     0.712   0.4685   0.6244
V79     V     0.712   0.9685   0.1244
V80     V     0.712   0.9685   0.6244
V81     V     0.2506   0.4065   0.163
V82     V     0.2506   0.4065   0.663
V83     V     0.2506   0.9065   0.163
V84     V     0.2506   0.9065   0.663
V85     V     0.7506   0.4065   0.163
V86     V     0.7506   0.4065   0.663
V87     V     0.7506   0.9065   0.163
V88     V     0.7506   0.9065   0.663
V89     V     0.2494   0.3435   0.163
V90     V     0.2494   0.3435   0.663
V91     V     0.2494   0.8435   0.163
V92     V     0.2494   0.8435   0.663
V93     V     0.7494   0.3435   0.163
V94     V     0.7494   0.3435   0.663
V95     V     0.7494   0.8435   0.163
V96     V     0.7494   0.8435   0.663
V97     V     0.2506   0.0935   0.087
V98     V     0.2506   0.0935   0.587
V99     V     0.2506   0.5935   0.087
V100     V     0.2506   0.5935   0.587
V101     V     0.7506   0.0935   0.087
V102     V     0.7506   0.0935   0.587
V103     V     0.7506   0.5935   0.087
V104     V     0.7506   0.5935   0.587
V105     V     0.2494   0.1565   0.087
V106     V     0.2494   0.1565   0.587
V107     V     0.2494   0.6565   0.087
V108     V     0.2494   0.6565   0.587
V109     V     0.7494   0.1565   0.087
V110     V     0.7494   0.1565   0.587
V111     V     0.7494   0.6565   0.087
V112     V     0.7494   0.6565   0.587
V113     V     0.288   0.2185   0.1256
V114     V     0.288   0.2185   0.6256
V115     V     0.288   0.7185   0.1256
V116     V     0.288   0.7185   0.6256
V117     V     0.788   0.2185   0.1256
V118     V     0.788   0.2185   0.6256
V119     V     0.788   0.7185   0.1256
V120     V     0.788   0.7185   0.6256
V121     V     0.288   0.2815   0.1244
V122     V     0.288   0.2815   0.6244
V123     V     0.288   0.7815   0.1244
V124     V     0.288   0.7815   0.6244
V125     V     0.788   0.2815   0.1244
V126     V     0.788   0.2815   0.6244
V127     V     0.788   0.7815   0.1244
V128     V     0.788   0.7815   0.6244
V129     V     0.3435   0.337   0.0006
V130     V     0.3435   0.337   0.5006
V131     V     0.3435   0.837   0.0006
V132     V     0.3435   0.837   0.5006
V133     V     0.8435   0.337   0.0006
V134     V     0.8435   0.337   0.5006
V135     V     0.8435   0.837   0.0006
V136     V     0.8435   0.837   0.5006
V137     V     0.4065   0.337   0.4994
V138     V     0.4065   0.337   0.9994
V139     V     0.4065   0.837   0.4994
V140     V     0.4065   0.837   0.9994
V141     V     0.9065   0.337   0.4994
V142     V     0.9065   0.337   0.9994
V143     V     0.9065   0.837   0.4994
V144     V     0.9065   0.837   0.9994
V145     V     0.0315   0.3744   0.038
V146     V     0.0315   0.3744   0.538
V147     V     0.0315   0.8744   0.038
V148     V     0.0315   0.8744   0.538
V149     V     0.5315   0.3744   0.038
V150     V     0.5315   0.3744   0.538
V151     V     0.5315   0.8744   0.038
V152     V     0.5315   0.8744   0.538
V153     V     0.4685   0.3756   0.038
V154     V     0.4685   0.3756   0.538
V155     V     0.4685   0.8756   0.038
V156     V     0.4685   0.8756   0.538
V157     V     0.9685   0.3756   0.038
V158     V     0.9685   0.3756   0.538
V159     V     0.9685   0.8756   0.038
V160     V     0.9685   0.8756   0.538
V161     V     0.1565   0.413   0.0006
V162     V     0.1565   0.413   0.5006
V163     V     0.1565   0.913   0.0006
V164     V     0.1565   0.913   0.5006
V165     V     0.6565   0.413   0.0006
V166     V     0.6565   0.413   0.5006
V167     V     0.6565   0.913   0.0006
V168     V     0.6565   0.913   0.5006
V169     V     0.0935   0.413   0.4994
V170     V     0.0935   0.413   0.9994
V171     V     0.0935   0.913   0.4994
V172     V     0.0935   0.913   0.9994
V173     V     0.5935   0.413   0.4994
V174     V     0.5935   0.413   0.9994
V175     V     0.5935   0.913   0.4994
V176     V     0.5935   0.913   0.9994
V177     V     0.2185   0.3744   0.462
V178     V     0.2185   0.3744   0.962
V179     V     0.2185   0.8744   0.462
V180     V     0.2185   0.8744   0.962
V181     V     0.7185   0.3744   0.462
V182     V     0.7185   0.3744   0.962
V183     V     0.7185   0.8744   0.462
V184     V     0.7185   0.8744   0.962
V185     V     0.2815   0.3756   0.462
V186     V     0.2815   0.3756   0.962
V187     V     0.2815   0.8756   0.462
V188     V     0.2815   0.8756   0.962
V189     V     0.7815   0.3756   0.462
V190     V     0.7815   0.3756   0.962
V191     V     0.7815   0.8756   0.462
V192     V     0.7815   0.8756   0.962
V193     V     0.0935   0.087   0.2506
V194     V     0.0935   0.087   0.7506
V195     V     0.0935   0.587   0.2506
V196     V     0.0935   0.587   0.7506
V197     V     0.5935   0.087   0.2506
V198     V     0.5935   0.087   0.7506
V199     V     0.5935   0.587   0.2506
V200     V     0.5935   0.587   0.7506
V201     V     0.1565   0.087   0.2494
V202     V     0.1565   0.087   0.7494
V203     V     0.1565   0.587   0.2494
V204     V     0.1565   0.587   0.7494
V205     V     0.6565   0.087   0.2494
V206     V     0.6565   0.087   0.7494
V207     V     0.6565   0.587   0.2494
V208     V     0.6565   0.587   0.7494
V209     V     0.2185   0.1256   0.288
V210     V     0.2185   0.1256   0.788
V211     V     0.2185   0.6256   0.288
V212     V     0.2185   0.6256   0.788
V213     V     0.7185   0.1256   0.288
V214     V     0.7185   0.1256   0.788
V215     V     0.7185   0.6256   0.288
V216     V     0.7185   0.6256   0.788
V217     V     0.2815   0.1244   0.288
V218     V     0.2815   0.1244   0.788
V219     V     0.2815   0.6244   0.288
V220     V     0.2815   0.6244   0.788
V221     V     0.7815   0.1244   0.288
V222     V     0.7815   0.1244   0.788
V223     V     0.7815   0.6244   0.288
V224     V     0.7815   0.6244   0.788
V225     V     0.0315   0.1256   0.212
V226     V     0.0315   0.1256   0.712
V227     V     0.0315   0.6256   0.212
V228     V     0.0315   0.6256   0.712
V229     V     0.5315   0.1256   0.212
V230     V     0.5315   0.1256   0.712
V231     V     0.5315   0.6256   0.212
V232     V     0.5315   0.6256   0.712
V233     V     0.4685   0.1244   0.212
V234     V     0.4685   0.1244   0.712
V235     V     0.4685   0.6244   0.212
V236     V     0.4685   0.6244   0.712
V237     V     0.9685   0.1244   0.212
V238     V     0.9685   0.1244   0.712
V239     V     0.9685   0.6244   0.212
V240     V     0.9685   0.6244   0.712
V241     V     0.4065   0.163   0.2506
V242     V     0.4065   0.163   0.7506
V243     V     0.4065   0.663   0.2506
V244     V     0.4065   0.663   0.7506
V245     V     0.9065   0.163   0.2506
V246     V     0.9065   0.163   0.7506
V247     V     0.9065   0.663   0.2506
V248     V     0.9065   0.663   0.7506
V249     V     0.3435   0.163   0.2494
V250     V     0.3435   0.163   0.7494
V251     V     0.3435   0.663   0.2494
V252     V     0.3435   0.663   0.7494
V253     V     0.8435   0.163   0.2494
V254     V     0.8435   0.163   0.7494
V255     V     0.8435   0.663   0.2494
V256     V     0.8435   0.663   0.7494
V257     V     0.3756   0.038   0.4685
V258     V     0.3756   0.038   0.9685
V259     V     0.3756   0.538   0.4685
V260     V     0.3756   0.538   0.9685
V261     V     0.8756   0.038   0.4685
V262     V     0.8756   0.038   0.9685
V263     V     0.8756   0.538   0.4685
V264     V     0.8756   0.538   0.9685
V265     V     0.3744   0.038   0.0315
V266     V     0.3744   0.038   0.5315
V267     V     0.3744   0.538   0.0315
V268     V     0.3744   0.538   0.5315
V269     V     0.8744   0.038   0.0315
V270     V     0.8744   0.038   0.5315
V271     V     0.8744   0.538   0.0315
V272     V     0.8744   0.538   0.5315
V273     V     0.337   0.0006   0.3435
V274     V     0.337   0.0006   0.8435
V275     V     0.337   0.5006   0.3435
V276     V     0.337   0.5006   0.8435
V277     V     0.837   0.0006   0.3435
V278     V     0.837   0.0006   0.8435
V279     V     0.837   0.5006   0.3435
V280     V     0.837   0.5006   0.8435
V281     V     0.337   0.4994   0.4065
V282     V     0.337   0.4994   0.9065
V283     V     0.337   0.9994   0.4065
V284     V     0.337   0.9994   0.9065
V285     V     0.837   0.4994   0.4065
V286     V     0.837   0.4994   0.9065
V287     V     0.837   0.9994   0.4065
V288     V     0.837   0.9994   0.9065
V289     V     0.3744   0.462   0.2185
V290     V     0.3744   0.462   0.7185
V291     V     0.3744   0.962   0.2185
V292     V     0.3744   0.962   0.7185
V293     V     0.8744   0.462   0.2185
V294     V     0.8744   0.462   0.7185
V295     V     0.8744   0.962   0.2185
V296     V     0.8744   0.962   0.7185
V297     V     0.3756   0.462   0.2815
V298     V     0.3756   0.462   0.7815
V299     V     0.3756   0.962   0.2815
V300     V     0.3756   0.962   0.7815
V301     V     0.8756   0.462   0.2815
V302     V     0.8756   0.462   0.7815
V303     V     0.8756   0.962   0.2815
V304     V     0.8756   0.962   0.7815
V305     V     0.413   0.4994   0.0935
V306     V     0.413   0.4994   0.5935
V307     V     0.413   0.9994   0.0935
V308     V     0.413   0.9994   0.5935
V309     V     0.913   0.4994   0.0935
V310     V     0.913   0.4994   0.5935
V311     V     0.913   0.9994   0.0935
V312     V     0.913   0.9994   0.5935
V313     V     0.413   0.0006   0.1565
V314     V     0.413   0.0006   0.6565
V315     V     0.413   0.5006   0.1565
V316     V     0.413   0.5006   0.6565
V317     V     0.913   0.0006   0.1565
V318     V     0.913   0.0006   0.6565
V319     V     0.913   0.5006   0.1565
V320     V     0.913   0.5006   0.6565
V321     V     0.1256   0.212   0.0315
V322     V     0.1256   0.212   0.5315
V323     V     0.1256   0.712   0.0315
V324     V     0.1256   0.712   0.5315
V325     V     0.6256   0.212   0.0315
V326     V     0.6256   0.212   0.5315
V327     V     0.6256   0.712   0.0315
V328     V     0.6256   0.712   0.5315
V329     V     0.1244   0.212   0.4685
V330     V     0.1244   0.212   0.9685
V331     V     0.1244   0.712   0.4685
V332     V     0.1244   0.712   0.9685
V333     V     0.6244   0.212   0.4685
V334     V     0.6244   0.212   0.9685
V335     V     0.6244   0.712   0.4685
V336     V     0.6244   0.712   0.9685
V337     V     0.163   0.2506   0.4065
V338     V     0.163   0.2506   0.9065
V339     V     0.163   0.7506   0.4065
V340     V     0.163   0.7506   0.9065
V341     V     0.663   0.2506   0.4065
V342     V     0.663   0.2506   0.9065
V343     V     0.663   0.7506   0.4065
V344     V     0.663   0.7506   0.9065
V345     V     0.163   0.2494   0.3435
V346     V     0.163   0.2494   0.8435
V347     V     0.163   0.7494   0.3435
V348     V     0.163   0.7494   0.8435
V349     V     0.663   0.2494   0.3435
V350     V     0.663   0.2494   0.8435
V351     V     0.663   0.7494   0.3435
V352     V     0.663   0.7494   0.8435
V353     V     0.087   0.2506   0.0935
V354     V     0.087   0.2506   0.5935
V355     V     0.087   0.7506   0.0935
V356     V     0.087   0.7506   0.5935
V357     V     0.587   0.2506   0.0935
V358     V     0.587   0.2506   0.5935
V359     V     0.587   0.7506   0.0935
V360     V     0.587   0.7506   0.5935
V361     V     0.087   0.2494   0.1565
V362     V     0.087   0.2494   0.6565
V363     V     0.087   0.7494   0.1565
V364     V     0.087   0.7494   0.6565
V365     V     0.587   0.2494   0.1565
V366     V     0.587   0.2494   0.6565
V367     V     0.587   0.7494   0.1565
V368     V     0.587   0.7494   0.6565
V369     V     0.1244   0.288   0.2815
V370     V     0.1244   0.288   0.7815
V371     V     0.1244   0.788   0.2815
V372     V     0.1244   0.788   0.7815
V373     V     0.6244   0.288   0.2815
V374     V     0.6244   0.288   0.7815
V375     V     0.6244   0.788   0.2815
V376     V     0.6244   0.788   0.7815
V377     V     0.1256   0.288   0.2185
V378     V     0.1256   0.288   0.7185
V379     V     0.1256   0.788   0.2185
V380     V     0.1256   0.788   0.7185
V381     V     0.6256   0.288   0.2185
V382     V     0.6256   0.288   0.7185
V383     V     0.6256   0.788   0.2185
V384     V     0.6256   0.788   0.7185
loop_
_geom_bond_atom_site_label_1
_geom_bond_atom_site_label_2
_geom_bond_distance
_geom_bond_site_symmetry_2
_ccdc_geom_bond_type
V1     V130    9.985   .     S
V1     V366    9.985   .     S
V1     V230    9.996   .     S
V1     V98    10.033   .     S
V2     V129    9.985   1_556     S
V2     V365    9.985   1_556     S
V2     V229    9.996   1_556     S
V2     V97    10.033   1_556     S
V3     V132    9.985   .     S
V3     V368    9.985   .     S
V3     V232    9.996   .     S
V3     V100    10.033   .     S
V4     V131    9.985   1_556     S
V4     V367    9.985   1_556     S
V4     V231    9.996   1_556     S
V4     V99    10.033   1_556     S
V5     V134    9.985   .     S
V5     V362    9.985   1_655     S
V5     V226    9.996   1_655     S
V5     V102    10.033   .     S
V6     V133    9.985   1_556     S
V6     V361    9.985   1_656     S
V6     V225    9.996   1_656     S
V6     V101    10.033   1_556     S
V7     V136    9.985   .     S
V7     V364    9.985   1_655     S
V7     V228    9.996   1_655     S
V7     V104    10.033   .     S
V8     V135    9.985   1_556     S
V8     V363    9.985   1_656     S
V8     V227    9.996   1_656     S
V8     V103    10.033   1_556     S
V9     V164    9.985   1_545     S
V9     V238    9.996   1_455     S
V9     V318    9.985   1_455     S
V9     V106    10.033   .     S
V10     V163    9.985   1_546     S
V10     V237    9.996   1_456     S
V10     V317    9.985   1_456     S
V10     V105    10.033   1_556     S
V11     V162    9.985   .     S
V11     V240    9.996   1_455     S
V11     V320    9.985   1_455     S
V11     V108    10.033   .     S
V12     V161    9.985   1_556     S
V12     V239    9.996   1_456     S
V12     V319    9.985   1_456     S
V12     V107    10.033   1_556     S
V13     V168    9.985   1_545     S
V13     V234    9.996   .     S
V13     V314    9.985   .     S
V13     V110    10.033   .     S
V14     V167    9.985   1_546     S
V14     V233    9.996   1_556     S
V14     V313    9.985   1_556     S
V14     V109    10.033   1_556     S
V15     V166    9.985   .     S
V15     V236    9.996   .     S
V15     V316    9.985   .     S
V15     V112    10.033   .     S
V16     V165    9.985   1_556     S
V16     V235    9.996   1_556     S
V16     V315    9.985   1_556     S
V16     V111    10.033   1_556     S
V17     V266    9.985   .     S
V17     V345    9.996   .     S
V17     V209    9.985   .     S
V17     V122    10.033   .     S
V18     V265    9.985   1_556     S
V18     V346    9.996   .     S
V18     V210    9.985   .     S
V18     V121    10.033   1_556     S
V19     V268    9.985   .     S
V19     V347    9.996   .     S
V19     V211    9.985   .     S
V19     V124    10.033   .     S
V20     V267    9.985   1_556     S
V20     V348    9.996   .     S
V20     V212    9.985   .     S
V20     V123    10.033   1_556     S
V21     V270    9.985   .     S
V21     V349    9.996   .     S
V21     V213    9.985   .     S
V21     V126    10.033   .     S
V22     V269    9.985   1_556     S
V22     V350    9.996   .     S
V22     V214    9.985   .     S
V22     V125    10.033   1_556     S
V23     V272    9.985   .     S
V23     V351    9.996   .     S
V23     V215    9.985   .     S
V23     V128    10.033   .     S
V24     V271    9.985   1_556     S
V24     V352    9.996   .     S
V24     V216    9.985   .     S
V24     V127    10.033   1_556     S
V25     V289    9.985   .     S
V25     V177    9.985   .     S
V25     V337    9.996   .     S
V25     V113    10.033   .     S
V26     V290    9.985   .     S
V26     V178    9.985   .     S
V26     V338    9.996   .     S
V26     V114    10.033   .     S
V27     V291    9.985   .     S
V27     V179    9.985   .     S
V27     V339    9.996   .     S
V27     V115    10.033   .     S
V28     V292    9.985   .     S
V28     V180    9.985   .     S
V28     V340    9.996   .     S
V28     V116    10.033   .     S
V29     V293    9.985   .     S
V29     V181    9.985   .     S
V29     V341    9.996   .     S
V29     V117    10.033   .     S
V30     V294    9.985   .     S
V30     V182    9.985   .     S
V30     V342    9.996   .     S
V30     V118    10.033   .     S
V31     V295    9.985   .     S
V31     V183    9.985   .     S
V31     V343    9.996   .     S
V31     V119    10.033   .     S
V32     V296    9.985   .     S
V32     V184    9.985   .     S
V32     V344    9.996   .     S
V32     V120    10.033   .     S
V33     V249    9.985   .     S
V33     V149    9.996   .     S
V33     V357    9.985   .     S
V33     V81    10.033   .     S
V34     V250    9.985   .     S
V34     V150    9.996   .     S
V34     V358    9.985   .     S
V34     V82    10.033   .     S
V35     V251    9.985   .     S
V35     V151    9.996   .     S
V35     V359    9.985   .     S
V35     V83    10.033   .     S
V36     V252    9.985   .     S
V36     V152    9.996   .     S
V36     V360    9.985   .     S
V36     V84    10.033   .     S
V37     V253    9.985   .     S
V37     V145    9.996   1_655     S
V37     V353    9.985   1_655     S
V37     V85    10.033   .     S
V38     V254    9.985   .     S
V38     V146    9.996   1_655     S
V38     V354    9.985   1_655     S
V38     V86    10.033   .     S
V39     V255    9.985   .     S
V39     V147    9.996   1_655     S
V39     V355    9.985   1_655     S
V39     V87    10.033   .     S
V40     V256    9.985   .     S
V40     V148    9.996   1_655     S
V40     V356    9.985   1_655     S
V40     V88    10.033   .     S
V41     V203    9.985   .     S
V41     V309    9.985   1_455     S
V41     V157    9.996   1_455     S
V41     V89    10.033   .     S
V42     V204    9.985   .     S
V42     V310    9.985   1_455     S
V42     V158    9.996   1_455     S
V42     V90    10.033   .     S
V43     V201    9.985   1_565     S
V43     V311    9.985   1_455     S
V43     V159    9.996   1_455     S
V43     V91    10.033   .     S
V44     V202    9.985   1_565     S
V44     V312    9.985   1_455     S
V44     V160    9.996   1_455     S
V44     V92    10.033   .     S
V45     V207    9.985   .     S
V45     V305    9.985   .     S
V45     V153    9.996   .     S
V45     V93    10.033   .     S
V46     V208    9.985   .     S
V46     V306    9.985   .     S
V46     V154    9.996   .     S
V46     V94    10.033   .     S
V47     V205    9.985   1_565     S
V47     V307    9.985   .     S
V47     V155    9.996   .     S
V47     V95    10.033   .     S
V48     V206    9.985   1_565     S
V48     V308    9.985   .     S
V48     V156    9.996   .     S
V48     V96    10.033   .     S
V49     V324    9.985   .     S
V49     V219    9.985   .     S
V49     V275    9.996   .     S
V49     V74    10.033   .     S
V50     V323    9.985   1_556     S
V50     V220    9.985   .     S
V50     V276    9.996   .     S
V50     V73    10.033   1_556     S
V51     V322    9.985   1_565     S
V51     V217    9.985   1_565     S
V51     V273    9.996   1_565     S
V51     V76    10.033   .     S
V52     V321    9.985   1_566     S
V52     V218    9.985   1_565     S
V52     V274    9.996   1_565     S
V52     V75    10.033   1_556     S
V53     V328    9.985   .     S
V53     V223    9.985   .     S
V53     V279    9.996   .     S
V53     V78    10.033   .     S
V54     V327    9.985   1_556     S
V54     V224    9.985   .     S
V54     V280    9.996   .     S
V54     V77    10.033   1_556     S
V55     V326    9.985   1_565     S
V55     V221    9.985   1_565     S
V55     V277    9.996   1_565     S
V55     V80    10.033   .     S
V56     V325    9.985   1_566     S
V56     V222    9.985   1_565     S
V56     V278    9.996   1_565     S
V56     V79    10.033   1_556     S
V57     V379    9.985   1_545     S
V57     V283    9.996   1_545     S
V57     V187    9.985   1_545     S
V57     V65    10.033   .     S
V58     V380    9.985   1_545     S
V58     V284    9.996   1_545     S
V58     V188    9.985   1_545     S
V58     V66    10.033   .     S
V59     V377    9.985   .     S
V59     V281    9.996   .     S
V59     V185    9.985   .     S
V59     V67    10.033   .     S
V60     V378    9.985   .     S
V60     V282    9.996   .     S
V60     V186    9.985   .     S
V60     V68    10.033   .     S
V61     V383    9.985   1_545     S
V61     V287    9.996   1_545     S
V61     V191    9.985   1_545     S
V61     V69    10.033   .     S
V62     V384    9.985   1_545     S
V62     V288    9.996   1_545     S
V62     V192    9.985   1_545     S
V62     V70    10.033   .     S
V63     V381    9.985   .     S
V63     V285    9.996   .     S
V63     V189    9.985   .     S
V63     V71    10.033   .     S
V64     V382    9.985   .     S
V64     V286    9.996   .     S
V64     V190    9.985   .     S
V64     V72    10.033   .     S
V65     V371    9.985   1_545     S
V65     V311    9.996   1_445     S
V65     V159    9.985   1_445     S
V66     V372    9.985   1_545     S
V66     V312    9.996   1_445     S
V66     V160    9.985   1_445     S
V67     V369    9.985   .     S
V67     V309    9.996   1_455     S
V67     V157    9.985   1_455     S
V68     V370    9.985   .     S
V68     V310    9.996   1_455     S
V68     V158    9.985   1_455     S
V69     V375    9.985   1_545     S
V69     V307    9.996   1_545     S
V69     V155    9.985   1_545     S
V70     V376    9.985   1_545     S
V70     V308    9.996   1_545     S
V70     V156    9.985   1_545     S
V71     V373    9.985   .     S
V71     V305    9.996   .     S
V71     V153    9.985   .     S
V72     V374    9.985   .     S
V72     V306    9.996   .     S
V72     V154    9.985   .     S
V73     V332    9.985   1_554     S
V73     V239    9.985   1_455     S
V73     V319    9.996   1_455     S
V73     V50    10.033   1_554     S
V74     V331    9.985   .     S
V74     V240    9.985   1_455     S
V74     V320    9.996   1_455     S
V75     V330    9.985   1_564     S
V75     V237    9.985   1_465     S
V75     V317    9.996   1_465     S
V75     V52    10.033   1_554     S
V76     V329    9.985   1_565     S
V76     V238    9.985   1_465     S
V76     V318    9.996   1_465     S
V77     V336    9.985   1_554     S
V77     V235    9.985   .     S
V77     V315    9.996   .     S
V77     V54    10.033   1_554     S
V78     V335    9.985   .     S
V78     V236    9.985   .     S
V78     V316    9.996   .     S
V79     V334    9.985   1_564     S
V79     V233    9.985   1_565     S
V79     V313    9.996   1_565     S
V79     V56    10.033   1_554     S
V80     V333    9.985   1_565     S
V80     V234    9.985   1_565     S
V80     V314    9.996   1_565     S
V81     V241    9.985   .     S
V81     V337    9.985   .     S
V81     V177    9.996   .     S
V82     V242    9.985   .     S
V82     V338    9.985   .     S
V82     V178    9.996   .     S
V83     V243    9.985   .     S
V83     V339    9.985   .     S
V83     V179    9.996   .     S
V84     V244    9.985   .     S
V84     V340    9.985   .     S
V84     V180    9.996   .     S
V85     V245    9.985   .     S
V85     V341    9.985   .     S
V85     V181    9.996   .     S
V86     V246    9.985   .     S
V86     V342    9.985   .     S
V86     V182    9.996   .     S
V87     V247    9.985   .     S
V87     V343    9.985   .     S
V87     V183    9.996   .     S
V88     V248    9.985   .     S
V88     V344    9.985   .     S
V88     V184    9.996   .     S
V89     V195    9.985   .     S
V89     V185    9.996   .     S
V89     V281    9.985   .     S
V90     V196    9.985   .     S
V90     V186    9.996   .     S
V90     V282    9.985   .     S
V91     V193    9.985   1_565     S
V91     V187    9.996   .     S
V91     V283    9.985   .     S
V92     V194    9.985   1_565     S
V92     V188    9.996   .     S
V92     V284    9.985   .     S
V93     V199    9.985   .     S
V93     V189    9.996   .     S
V93     V285    9.985   .     S
V94     V200    9.985   .     S
V94     V190    9.996   .     S
V94     V286    9.985   .     S
V95     V197    9.985   1_565     S
V95     V191    9.996   .     S
V95     V287    9.985   .     S
V96     V198    9.985   1_565     S
V96     V192    9.996   .     S
V96     V288    9.985   .     S
V97     V138    9.985   1_554     S
V97     V210    9.996   1_554     S
V97     V346    9.985   1_554     S
V97     V2    10.033   1_554     S
V98     V137    9.985   .     S
V98     V209    9.996   .     S
V98     V345    9.985   .     S
V99     V140    9.985   1_554     S
V99     V212    9.996   1_554     S
V99     V348    9.985   1_554     S
V99     V4    10.033   1_554     S
V100     V139    9.985   .     S
V100     V211    9.996   .     S
V100     V347    9.985   .     S
V101     V142    9.985   1_554     S
V101     V214    9.996   1_554     S
V101     V350    9.985   1_554     S
V101     V6    10.033   1_554     S
V102     V141    9.985   .     S
V102     V213    9.996   .     S
V102     V349    9.985   .     S
V103     V144    9.985   1_554     S
V103     V216    9.996   1_554     S
V103     V352    9.985   1_554     S
V103     V8    10.033   1_554     S
V104     V143    9.985   .     S
V104     V215    9.996   .     S
V104     V351    9.985   .     S
V105     V172    9.985   1_544     S
V105     V274    9.985   1_554     S
V105     V218    9.996   1_554     S
V105     V10    10.033   1_554     S
V106     V171    9.985   1_545     S
V106     V273    9.985   .     S
V106     V217    9.996   .     S
V107     V170    9.985   1_554     S
V107     V276    9.985   1_554     S
V107     V220    9.996   1_554     S
V107     V12    10.033   1_554     S
V108     V169    9.985   .     S
V108     V275    9.985   .     S
V108     V219    9.996   .     S
V109     V176    9.985   1_544     S
V109     V278    9.985   1_554     S
V109     V222    9.996   1_554     S
V109     V14    10.033   1_554     S
V110     V175    9.985   1_545     S
V110     V277    9.985   .     S
V110     V221    9.996   .     S
V111     V174    9.985   1_554     S
V111     V280    9.985   1_554     S
V111     V224    9.996   1_554     S
V111     V16    10.033   1_554     S
V112     V173    9.985   .     S
V112     V279    9.985   .     S
V112     V223    9.996   .     S
V113     V297    9.985   .     S
V113     V149    9.985   .     S
V113     V357    9.996   .     S
V114     V298    9.985   .     S
V114     V150    9.985   .     S
V114     V358    9.996   .     S
V115     V299    9.985   .     S
V115     V151    9.985   .     S
V115     V359    9.996   .     S
V116     V300    9.985   .     S
V116     V152    9.985   .     S
V116     V360    9.996   .     S
V117     V301    9.985   .     S
V117     V145    9.985   1_655     S
V117     V353    9.996   1_655     S
V118     V302    9.985   .     S
V118     V146    9.985   1_655     S
V118     V354    9.996   1_655     S
V119     V303    9.985   .     S
V119     V147    9.985   1_655     S
V119     V355    9.996   1_655     S
V120     V304    9.985   .     S
V120     V148    9.985   1_655     S
V120     V356    9.996   1_655     S
V121     V258    9.985   1_554     S
V121     V365    9.996   .     S
V121     V229    9.985   .     S
V121     V18    10.033   1_554     S
V122     V257    9.985   .     S
V122     V366    9.996   .     S
V122     V230    9.985   .     S
V123     V260    9.985   1_554     S
V123     V367    9.996   .     S
V123     V231    9.985   .     S
V123     V20    10.033   1_554     S
V124     V259    9.985   .     S
V124     V368    9.996   .     S
V124     V232    9.985   .     S
V125     V262    9.985   1_554     S
V125     V361    9.996   1_655     S
V125     V225    9.985   1_655     S
V125     V22    10.033   1_554     S
V126     V261    9.985   .     S
V126     V362    9.996   1_655     S
V126     V226    9.985   1_655     S
V127     V264    9.985   1_554     S
V127     V363    9.996   1_655     S
V127     V227    9.985   1_655     S
V127     V24    10.033   1_554     S
V128     V263    9.985   .     S
V128     V364    9.996   1_655     S
V128     V228    9.985   1_655     S
V129     V2    9.985   1_554     S
V129     V258    9.996   1_554     S
V129     V365    9.985   .     S
V129     V249    10.033   .     S
V130     V257    9.996   .     S
V130     V366    9.985   .     S
V130     V250    10.033   .     S
V131     V4    9.985   1_554     S
V131     V260    9.996   1_554     S
V131     V367    9.985   .     S
V131     V251    10.033   .     S
V132     V259    9.996   .     S
V132     V368    9.985   .     S
V132     V252    10.033   .     S
V133     V6    9.985   1_554     S
V133     V262    9.996   1_554     S
V133     V361    9.985   1_655     S
V133     V253    10.033   .     S
V134     V261    9.996   .     S
V134     V362    9.985   1_655     S
V134     V254    10.033   .     S
V135     V8    9.985   1_554     S
V135     V264    9.996   1_554     S
V135     V363    9.985   1_655     S
V135     V255    10.033   .     S
V136     V263    9.996   .     S
V136     V364    9.985   1_655     S
V136     V256    10.033   .     S
V137     V266    9.996   .     S
V137     V345    9.985   .     S
V137     V241    10.033   .     S
V138     V265    9.996   1_556     S
V138     V97    9.985   1_556     S
V138     V346    9.985   .     S
V138     V242    10.033   .     S
V139     V268    9.996   .     S
V139     V347    9.985   .     S
V139     V243    10.033   .     S
V140     V267    9.996   1_556     S
V140     V99    9.985   1_556     S
V140     V348    9.985   .     S
V140     V244    10.033   .     S
V141     V270    9.996   .     S
V141     V349    9.985   .     S
V141     V245    10.033   .     S
V142     V269    9.996   1_556     S
V142     V101    9.985   1_556     S
V142     V350    9.985   .     S
V142     V246    10.033   .     S
V143     V272    9.996   .     S
V143     V351    9.985   .     S
V143     V247    10.033   .     S
V144     V271    9.996   1_556     S
V144     V103    9.985   1_556     S
V144     V352    9.985   .     S
V144     V248    10.033   .     S
V145     V117    9.985   1_455     S
V145     V301    9.985   1_455     S
V145     V37    9.996   1_455     S
V145     V225    10.033   .     S
V146     V118    9.985   1_455     S
V146     V302    9.985   1_455     S
V146     V38    9.996   1_455     S
V146     V226    10.033   .     S
V147     V119    9.985   1_455     S
V147     V303    9.985   1_455     S
V147     V39    9.996   1_455     S
V147     V227    10.033   .     S
V148     V120    9.985   1_455     S
V148     V304    9.985   1_455     S
V148     V40    9.996   1_455     S
V148     V228    10.033   .     S
V149     V297    9.985   .     S
V149     V229    10.033   .     S
V150     V298    9.985   .     S
V150     V230    10.033   .     S
V151     V299    9.985   .     S
V151     V231    10.033   .     S
V152     V300    9.985   .     S
V152     V232    10.033   .     S
V153     V373    9.985   .     S
V153     V235    10.033   .     S
V154     V374    9.985   .     S
V154     V236    10.033   .     S
V155     V69    9.985   1_565     S
V155     V375    9.985   .     S
V155     V233    10.033   1_565     S
V156     V70    9.985   1_565     S
V156     V376    9.985   .     S
V156     V234    10.033   1_565     S
V157     V67    9.985   1_655     S
V157     V41    9.996   1_655     S
V157     V369    9.985   1_655     S
V157     V239    10.033   .     S
V158     V68    9.985   1_655     S
V158     V42    9.996   1_655     S
V158     V370    9.985   1_655     S
V158     V240    10.033   .     S
V159     V65    9.985   1_665     S
V159     V43    9.996   1_655     S
V159     V371    9.985   1_655     S
V159     V237    10.033   1_565     S
V160     V66    9.985   1_665     S
V160     V44    9.996   1_655     S
V160     V372    9.985   1_655     S
V160     V238    10.033   1_565     S
V161     V12    9.985   1_554     S
V161     V332    9.996   1_554     S
V161     V319    9.985   1_455     S
V161     V203    10.033   .     S
V162     V331    9.996   .     S
V162     V320    9.985   1_455     S
V162     V204    10.033   .     S
V163     V10    9.985   1_564     S
V163     V330    9.996   1_564     S
V163     V317    9.985   1_465     S
V163     V201    10.033   1_565     S
V164     V9    9.985   1_565     S
V164     V329    9.996   1_565     S
V164     V318    9.985   1_465     S
V164     V202    10.033   1_565     S
V165     V16    9.985   1_554     S
V165     V336    9.996   1_554     S
V165     V315    9.985   .     S
V165     V207    10.033   .     S
V166     V335    9.996   .     S
V166     V316    9.985   .     S
V166     V208    10.033   .     S
V167     V14    9.985   1_564     S
V167     V334    9.996   1_564     S
V167     V313    9.985   1_565     S
V167     V205    10.033   1_565     S
V168     V13    9.985   1_565     S
V168     V333    9.996   1_565     S
V168     V314    9.985   1_565     S
V168     V206    10.033   1_565     S
V169     V324    9.996   .     S
V169     V275    9.985   .     S
V169     V195    10.033   .     S
V170     V323    9.996   1_556     S
V170     V107    9.985   1_556     S
V170     V276    9.985   .     S
V170     V196    10.033   .     S
V171     V322    9.996   1_565     S
V171     V106    9.985   1_565     S
V171     V273    9.985   1_565     S
V171     V193    10.033   1_565     S
V172     V321    9.996   1_566     S
V172     V105    9.985   1_566     S
V172     V274    9.985   1_565     S
V172     V194    10.033   1_565     S
V173     V328    9.996   .     S
V173     V279    9.985   .     S
V173     V199    10.033   .     S
V174     V327    9.996   1_556     S
V174     V111    9.985   1_556     S
V174     V280    9.985   .     S
V174     V200    10.033   .     S
V175     V326    9.996   1_565     S
V175     V110    9.985   1_565     S
V175     V277    9.985   1_565     S
V175     V197    10.033   1_565     S
V176     V325    9.996   1_566     S
V176     V109    9.985   1_566     S
V176     V278    9.985   1_565     S
V176     V198    10.033   1_565     S
V177     V289    9.985   .     S
V177     V209    10.033   .     S
V178     V290    9.985   .     S
V178     V210    10.033   .     S
V179     V291    9.985   .     S
V179     V211    10.033   .     S
V180     V292    9.985   .     S
V180     V212    10.033   .     S
V181     V293    9.985   .     S
V181     V213    10.033   .     S
V182     V294    9.985   .     S
V182     V214    10.033   .     S
V183     V295    9.985   .     S
V183     V215    10.033   .     S
V184     V296    9.985   .     S
V184     V216    10.033   .     S
V185     V377    9.985   .     S
V185     V219    10.033   .     S
V186     V378    9.985   .     S
V186     V220    10.033   .     S
V187     V57    9.985   1_565     S
V187     V379    9.985   .     S
V187     V217    10.033   1_565     S
V188     V58    9.985   1_565     S
V188     V380    9.985   .     S
V188     V218    10.033   1_565     S
V189     V381    9.985   .     S
V189     V223    10.033   .     S
V190     V382    9.985   .     S
V190     V224    10.033   .     S
V191     V61    9.985   1_565     S
V191     V383    9.985   .     S
V191     V221    10.033   1_565     S
V192     V62    9.985   1_565     S
V192     V384    9.985   .     S
V192     V222    10.033   1_565     S
V193     V379    9.996   1_545     S
V193     V91    9.985   1_545     S
V193     V283    9.985   1_545     S
V193     V171    10.033   1_545     S
V194     V380    9.996   1_545     S
V194     V92    9.985   1_545     S
V194     V284    9.985   1_545     S
V194     V172    10.033   1_545     S
V195     V377    9.996   .     S
V195     V281    9.985   .     S
V196     V378    9.996   .     S
V196     V282    9.985   .     S
V197     V383    9.996   1_545     S
V197     V95    9.985   1_545     S
V197     V287    9.985   1_545     S
V197     V175    10.033   1_545     S
V198     V384    9.996   1_545     S
V198     V96    9.985   1_545     S
V198     V288    9.985   1_545     S
V198     V176    10.033   1_545     S
V199     V381    9.996   .     S
V199     V285    9.985   .     S
V200     V382    9.996   .     S
V200     V286    9.985   .     S
V201     V43    9.985   1_545     S
V201     V371    9.996   1_545     S
V201     V311    9.985   1_445     S
V201     V163    10.033   1_545     S
V202     V44    9.985   1_545     S
V202     V372    9.996   1_545     S
V202     V312    9.985   1_445     S
V202     V164    10.033   1_545     S
V203     V369    9.996   .     S
V203     V309    9.985   1_455     S
V204     V370    9.996   .     S
V204     V310    9.985   1_455     S
V205     V47    9.985   1_545     S
V205     V375    9.996   1_545     S
V205     V307    9.985   1_545     S
V205     V167    10.033   1_545     S
V206     V48    9.985   1_545     S
V206     V376    9.996   1_545     S
V206     V308    9.985   1_545     S
V206     V168    10.033   1_545     S
V207     V373    9.996   .     S
V207     V305    9.985   .     S
V208     V374    9.996   .     S
V208     V306    9.985   .     S
V209     V266    9.985   .     S
V210     V265    9.985   1_556     S
V210     V97    9.996   1_556     S
V211     V268    9.985   .     S
V212     V267    9.985   1_556     S
V212     V99    9.996   1_556     S
V213     V270    9.985   .     S
V214     V269    9.985   1_556     S
V214     V101    9.996   1_556     S
V215     V272    9.985   .     S
V216     V271    9.985   1_556     S
V216     V103    9.996   1_556     S
V217     V51    9.985   1_545     S
V217     V322    9.985   .     S
V217     V187    10.033   1_545     S
V218     V52    9.985   1_545     S
V218     V105    9.996   1_556     S
V218     V321    9.985   1_556     S
V218     V188    10.033   1_545     S
V219     V324    9.985   .     S
V220     V107    9.996   1_556     S
V220     V323    9.985   1_556     S
V221     V55    9.985   1_545     S
V221     V326    9.985   .     S
V221     V191    10.033   1_545     S
V222     V56    9.985   1_545     S
V222     V109    9.996   1_556     S
V222     V325    9.985   1_556     S
V222     V192    10.033   1_545     S
V223     V328    9.985   .     S
V224     V111    9.996   1_556     S
V224     V327    9.985   1_556     S
V225     V125    9.985   1_455     S
V225     V6    9.996   1_454     S
V225     V262    9.985   1_454     S
V226     V126    9.985   1_455     S
V226     V5    9.996   1_455     S
V226     V261    9.985   1_455     S
V227     V127    9.985   1_455     S
V227     V8    9.996   1_454     S
V227     V264    9.985   1_454     S
V228     V128    9.985   1_455     S
V228     V7    9.996   1_455     S
V228     V263    9.985   1_455     S
V229     V2    9.996   1_554     S
V229     V258    9.985   1_554     S
V230     V257    9.985   .     S
V231     V4    9.996   1_554     S
V231     V260    9.985   1_554     S
V232     V259    9.985   .     S
V233     V79    9.985   1_545     S
V233     V334    9.985   1_554     S
V233     V14    9.996   1_554     S
V233     V155    10.033   1_545     S
V234     V80    9.985   1_545     S
V234     V333    9.985   .     S
V234     V156    10.033   1_545     S
V235     V336    9.985   1_554     S
V235     V16    9.996   1_554     S
V236     V335    9.985   .     S
V237     V75    9.985   1_645     S
V237     V330    9.985   1_654     S
V237     V10    9.996   1_654     S
V237     V159    10.033   1_545     S
V238     V76    9.985   1_645     S
V238     V329    9.985   1_655     S
V238     V9    9.996   1_655     S
V238     V160    10.033   1_545     S
V239     V73    9.985   1_655     S
V239     V332    9.985   1_654     S
V239     V12    9.996   1_654     S
V240     V74    9.985   1_655     S
V240     V331    9.985   1_655     S
V240     V11    9.996   1_655     S
V241     V289    9.996   .     S
V241     V337    9.985   .     S
V242     V290    9.996   .     S
V242     V338    9.985   .     S
V243     V291    9.996   .     S
V243     V339    9.985   .     S
V244     V292    9.996   .     S
V244     V340    9.985   .     S
V245     V293    9.996   .     S
V245     V341    9.985   .     S
V246     V294    9.996   .     S
V246     V342    9.985   .     S
V247     V295    9.996   .     S
V247     V343    9.985   .     S
V248     V296    9.996   .     S
V248     V344    9.985   .     S
V249     V297    9.996   .     S
V249     V357    9.985   .     S
V250     V298    9.996   .     S
V250     V358    9.985   .     S
V251     V299    9.996   .     S
V251     V359    9.985   .     S
V252     V300    9.996   .     S
V252     V360    9.985   .     S
V253     V301    9.996   .     S
V253     V353    9.985   1_655     S
V254     V302    9.996   .     S
V254     V354    9.985   1_655     S
V255     V303    9.996   .     S
V255     V355    9.985   1_655     S
V256     V304    9.996   .     S
V256     V356    9.985   1_655     S
V257     V333    10.033   .     S
V258     V129    9.996   1_556     S
V258     V121    9.985   1_556     S
V258     V229    9.985   1_556     S
V258     V334    10.033   .     S
V259     V335    10.033   .     S
V260     V131    9.996   1_556     S
V260     V123    9.985   1_556     S
V260     V231    9.985   1_556     S
V260     V336    10.033   .     S
V261     V226    9.985   1_655     S
V261     V329    10.033   1_655     S
V262     V133    9.996   1_556     S
V262     V125    9.985   1_556     S
V262     V225    9.985   1_656     S
V262     V330    10.033   1_655     S
V263     V228    9.985   1_655     S
V263     V331    10.033   1_655     S
V264     V135    9.996   1_556     S
V264     V127    9.985   1_556     S
V264     V227    9.985   1_656     S
V264     V332    10.033   1_655     S
V265     V18    9.985   1_554     S
V265     V138    9.996   1_554     S
V265     V210    9.985   1_554     S
V265     V321    10.033   .     S
V266     V322    10.033   .     S
V267     V20    9.985   1_554     S
V267     V140    9.996   1_554     S
V267     V212    9.985   1_554     S
V267     V323    10.033   .     S
V268     V324    10.033   .     S
V269     V22    9.985   1_554     S
V269     V142    9.996   1_554     S
V269     V214    9.985   1_554     S
V269     V325    10.033   .     S
V270     V326    10.033   .     S
V271     V24    9.985   1_554     S
V271     V144    9.996   1_554     S
V271     V216    9.985   1_554     S
V271     V327    10.033   .     S
V272     V328    10.033   .     S
V273     V51    9.996   1_545     S
V273     V171    9.985   1_545     S
V273     V345    10.033   .     S
V274     V52    9.996   1_545     S
V274     V172    9.985   1_545     S
V274     V105    9.985   1_556     S
V274     V346    10.033   .     S
V275     V347    10.033   .     S
V276     V107    9.985   1_556     S
V276     V348    10.033   .     S
V277     V55    9.996   1_545     S
V277     V175    9.985   1_545     S
V277     V349    10.033   .     S
V278     V56    9.996   1_545     S
V278     V176    9.985   1_545     S
V278     V109    9.985   1_556     S
V278     V350    10.033   .     S
V279     V351    10.033   .     S
V280     V111    9.985   1_556     S
V280     V352    10.033   .     S
V281     V337    10.033   .     S
V282     V338    10.033   .     S
V283     V193    9.985   1_565     S
V283     V57    9.996   1_565     S
V283     V339    10.033   .     S
V284     V194    9.985   1_565     S
V284     V58    9.996   1_565     S
V284     V340    10.033   .     S
V285     V341    10.033   .     S
V286     V342    10.033   .     S
V287     V197    9.985   1_565     S
V287     V61    9.996   1_565     S
V287     V343    10.033   .     S
V288     V198    9.985   1_565     S
V288     V62    9.996   1_565     S
V288     V344    10.033   .     S
V289     V377    10.033   .     S
V290     V378    10.033   .     S
V291     V379    10.033   .     S
V292     V380    10.033   .     S
V293     V381    10.033   .     S
V294     V382    10.033   .     S
V295     V383    10.033   .     S
V296     V384    10.033   .     S
V297     V373    10.033   .     S
V298     V374    10.033   .     S
V299     V375    10.033   .     S
V300     V376    10.033   .     S
V301     V145    9.985   1_655     S
V301     V369    10.033   1_655     S
V302     V146    9.985   1_655     S
V302     V370    10.033   1_655     S
V303     V147    9.985   1_655     S
V303     V371    10.033   1_655     S
V304     V148    9.985   1_655     S
V304     V372    10.033   1_655     S
V305     V357    10.033   .     S
V306     V358    10.033   .     S
V307     V205    9.985   1_565     S
V307     V69    9.996   1_565     S
V307     V359    10.033   .     S
V308     V206    9.985   1_565     S
V308     V70    9.996   1_565     S
V308     V360    10.033   .     S
V309     V203    9.985   1_655     S
V309     V67    9.996   1_655     S
V309     V41    9.985   1_655     S
V309     V353    10.033   1_655     S
V310     V204    9.985   1_655     S
V310     V68    9.996   1_655     S
V310     V42    9.985   1_655     S
V310     V354    10.033   1_655     S
V311     V201    9.985   1_665     S
V311     V65    9.996   1_665     S
V311     V43    9.985   1_655     S
V311     V355    10.033   1_655     S
V312     V202    9.985   1_665     S
V312     V66    9.996   1_665     S
V312     V44    9.985   1_655     S
V312     V356    10.033   1_655     S
V313     V79    9.996   1_545     S
V313     V167    9.985   1_545     S
V313     V14    9.985   1_554     S
V313     V365    10.033   .     S
V314     V80    9.996   1_545     S
V314     V168    9.985   1_545     S
V314     V366    10.033   .     S
V315     V16    9.985   1_554     S
V315     V367    10.033   .     S
V316     V368    10.033   .     S
V317     V75    9.996   1_645     S
V317     V163    9.985   1_645     S
V317     V10    9.985   1_654     S
V317     V361    10.033   1_655     S
V318     V76    9.996   1_645     S
V318     V164    9.985   1_645     S
V318     V9    9.985   1_655     S
V318     V362    10.033   1_655     S
V319     V73    9.996   1_655     S
V319     V161    9.985   1_655     S
V319     V12    9.985   1_654     S
V319     V363    10.033   1_655     S
V320     V74    9.996   1_655     S
V320     V162    9.985   1_655     S
V320     V11    9.985   1_655     S
V320     V364    10.033   1_655     S
V321     V52    9.985   1_544     S
V321     V172    9.996   1_544     S
V321     V218    9.985   1_554     S
V322     V51    9.985   1_545     S
V322     V171    9.996   1_545     S
V323     V50    9.985   1_554     S
V323     V170    9.996   1_554     S
V323     V220    9.985   1_554     S
V325     V56    9.985   1_544     S
V325     V176    9.996   1_544     S
V325     V222    9.985   1_554     S
V326     V55    9.985   1_545     S
V326     V175    9.996   1_545     S
V327     V54    9.985   1_554     S
V327     V174    9.996   1_554     S
V327     V224    9.985   1_554     S
V329     V164    9.996   1_545     S
V329     V76    9.985   1_545     S
V329     V238    9.985   1_455     S
V329     V261    10.033   1_455     S
V330     V163    9.996   1_546     S
V330     V75    9.985   1_546     S
V330     V237    9.985   1_456     S
V330     V262    10.033   1_455     S
V331     V240    9.985   1_455     S
V331     V263    10.033   1_455     S
V332     V161    9.996   1_556     S
V332     V73    9.985   1_556     S
V332     V239    9.985   1_456     S
V332     V264    10.033   1_455     S
V333     V168    9.996   1_545     S
V333     V80    9.985   1_545     S
V334     V167    9.996   1_546     S
V334     V79    9.985   1_546     S
V334     V233    9.985   1_556     S
V336     V165    9.996   1_556     S
V336     V77    9.985   1_556     S
V336     V235    9.985   1_556     S
V346     V97    9.985   1_556     S
V348     V99    9.985   1_556     S
V350     V101    9.985   1_556     S
V352     V103    9.985   1_556     S
V353     V117    9.996   1_455     S
V353     V253    9.985   1_455     S
V353     V37    9.985   1_455     S
V353     V309    10.033   1_455     S
V354     V118    9.996   1_455     S
V354     V254    9.985   1_455     S
V354     V38    9.985   1_455     S
V354     V310    10.033   1_455     S
V355     V119    9.996   1_455     S
V355     V255    9.985   1_455     S
V355     V39    9.985   1_455     S
V355     V311    10.033   1_455     S
V356     V120    9.996   1_455     S
V356     V256    9.985   1_455     S
V356     V40    9.985   1_455     S
V356     V312    10.033   1_455     S
V361     V133    9.985   1_455     S
V361     V125    9.996   1_455     S
V361     V6    9.985   1_454     S
V361     V317    10.033   1_455     S
V362     V134    9.985   1_455     S
V362     V126    9.996   1_455     S
V362     V5    9.985   1_455     S
V362     V318    10.033   1_455     S
V363     V135    9.985   1_455     S
V363     V127    9.996   1_455     S
V363     V8    9.985   1_454     S
V363     V319    10.033   1_455     S
V364     V136    9.985   1_455     S
V364     V128    9.996   1_455     S
V364     V7    9.985   1_455     S
V364     V320    10.033   1_455     S
V365     V2    9.985   1_554     S
V367     V4    9.985   1_554     S
V369     V157    9.985   1_455     S
V369     V301    10.033   1_455     S
V370     V158    9.985   1_455     S
V370     V302    10.033   1_455     S
V371     V201    9.996   1_565     S
V371     V65    9.985   1_565     S
V371     V159    9.985   1_455     S
V371     V303    10.033   1_455     S
V372     V202    9.996   1_565     S
V372     V66    9.985   1_565     S
V372     V160    9.985   1_455     S
V372     V304    10.033   1_455     S
V375     V205    9.996   1_565     S
V375     V69    9.985   1_565     S
V376     V206    9.996   1_565     S
V376     V70    9.985   1_565     S
V379     V57    9.985   1_565     S
V379     V193    9.996   1_565     S
V380     V58    9.985   1_565     S
V380     V194    9.996   1_565     S
V383     V61    9.985   1_565     S
V383     V197    9.996   1_565     S
V384     V62    9.985   1_565     S
V384     V198    9.996   1_565     S
