data_urk
_audit_creation_date              2019-12-31
_audit_creation_method            'Pymatgen'
_symmetry_space_group_name_H-M    'P1'
_symmetry_Int_Tables_number       1
loop_
_symmetry_equiv_pos_as_xyz
  x,y,z
_cell_length_a                    40.0
_cell_length_b                    40.0
_cell_length_c                    40.0
_cell_angle_alpha                 90.0
_cell_angle_beta                 90.0
_cell_angle_gamma                 90.0
loop_
_atom_site_label
_atom_site_type_symbol
_atom_site_fract_x
_atom_site_fract_y
_atom_site_fract_z
V1     V     0.0   0.0   0.25
V2     V     0.0   0.0   0.75
V3     V     0.0   0.5   0.25
V4     V     0.0   0.5   0.75
V5     V     0.5   0.0   0.25
V6     V     0.5   0.0   0.75
V7     V     0.5   0.5   0.25
V8     V     0.5   0.5   0.75
Er9     Er     0.0   0.25   0.25
Er10     Er     0.0   0.25   0.75
Er11     Er     0.0   0.75   0.25
Er12     Er     0.0   0.75   0.75
Er13     Er     0.5   0.25   0.25
Er14     Er     0.5   0.25   0.75
Er15     Er     0.5   0.75   0.25
Er16     Er     0.5   0.75   0.75
Er17     Er     0.25   0.0   0.25
Er18     Er     0.25   0.0   0.75
Er19     Er     0.25   0.5   0.25
Er20     Er     0.25   0.5   0.75
Er21     Er     0.75   0.0   0.25
Er22     Er     0.75   0.0   0.75
Er23     Er     0.75   0.5   0.25
Er24     Er     0.75   0.5   0.75
V25     V     0.25   0.0   0.0
V26     V     0.25   0.0   0.5
V27     V     0.25   0.5   0.0
V28     V     0.25   0.5   0.5
V29     V     0.75   0.0   0.0
V30     V     0.75   0.0   0.5
V31     V     0.75   0.5   0.0
V32     V     0.75   0.5   0.5
V33     V     0.0   0.25   0.0
V34     V     0.0   0.25   0.5
V35     V     0.0   0.75   0.0
V36     V     0.0   0.75   0.5
V37     V     0.5   0.25   0.0
V38     V     0.5   0.25   0.5
V39     V     0.5   0.75   0.0
V40     V     0.5   0.75   0.5
Er41     Er     0.25   0.25   0.0
Er42     Er     0.25   0.25   0.5
Er43     Er     0.25   0.75   0.0
Er44     Er     0.25   0.75   0.5
Er45     Er     0.75   0.25   0.0
Er46     Er     0.75   0.25   0.5
Er47     Er     0.75   0.75   0.0
Er48     Er     0.75   0.75   0.5
Ti49     Ti     0.25   0.25   0.25
Ti50     Ti     0.25   0.25   0.75
Ti51     Ti     0.25   0.75   0.25
Ti52     Ti     0.25   0.75   0.75
Ti53     Ti     0.75   0.25   0.25
Ti54     Ti     0.75   0.25   0.75
Ti55     Ti     0.75   0.75   0.25
Ti56     Ti     0.75   0.75   0.75
loop_
_geom_bond_atom_site_label_1
_geom_bond_atom_site_label_2
_geom_bond_distance
_geom_bond_site_symmetry_2
_ccdc_geom_bond_type
V1     Er9    10.0   .     S
V1     Er21    10.0   1_455     S
V1     Er11    10.0   1_545     S
V1     Er17    10.0   .     S
V2     Er10    10.0   .     S
V2     Er22    10.0   1_455     S
V2     Er12    10.0   1_545     S
V2     Er18    10.0   .     S
V3     Er11    10.0   .     S
V3     Er23    10.0   1_455     S
V3     Er9    10.0   .     S
V3     Er19    10.0   .     S
V4     Er12    10.0   .     S
V4     Er24    10.0   1_455     S
V4     Er10    10.0   .     S
V4     Er20    10.0   .     S
V5     Er13    10.0   .     S
V5     Er17    10.0   .     S
V5     Er15    10.0   1_545     S
V5     Er21    10.0   .     S
V6     Er14    10.0   .     S
V6     Er18    10.0   .     S
V6     Er16    10.0   1_545     S
V6     Er22    10.0   .     S
V7     Er15    10.0   .     S
V7     Er19    10.0   .     S
V7     Er13    10.0   .     S
V7     Er23    10.0   .     S
V8     Er16    10.0   .     S
V8     Er20    10.0   .     S
V8     Er14    10.0   .     S
V8     Er24    10.0   .     S
Er9     V33    10.0   .     S
Er9     V34    10.0   .     S
Er9     Ti49    10.0   .     S
Er9     Ti53    10.0   1_455     S
Er10     V34    10.0   .     S
Er10     V33    10.0   1_556     S
Er10     Ti50    10.0   .     S
Er10     Ti54    10.0   1_455     S
Er11     V1    10.0   1_565     S
Er11     V35    10.0   .     S
Er11     V36    10.0   .     S
Er11     Ti51    10.0   .     S
Er11     Ti55    10.0   1_455     S
Er12     V2    10.0   1_565     S
Er12     V36    10.0   .     S
Er12     V35    10.0   1_556     S
Er12     Ti52    10.0   .     S
Er12     Ti56    10.0   1_455     S
Er13     V37    10.0   .     S
Er13     V38    10.0   .     S
Er13     Ti53    10.0   .     S
Er13     Ti49    10.0   .     S
Er14     V38    10.0   .     S
Er14     V37    10.0   1_556     S
Er14     Ti54    10.0   .     S
Er14     Ti50    10.0   .     S
Er15     V5    10.0   1_565     S
Er15     V39    10.0   .     S
Er15     V40    10.0   .     S
Er15     Ti55    10.0   .     S
Er15     Ti51    10.0   .     S
Er16     V6    10.0   1_565     S
Er16     V40    10.0   .     S
Er16     V39    10.0   1_556     S
Er16     Ti56    10.0   .     S
Er16     Ti52    10.0   .     S
Er17     V25    10.0   .     S
Er17     V26    10.0   .     S
Er17     Ti49    10.0   .     S
Er17     Ti51    10.0   1_545     S
Er18     V26    10.0   .     S
Er18     V25    10.0   1_556     S
Er18     Ti50    10.0   .     S
Er18     Ti52    10.0   1_545     S
Er19     V27    10.0   .     S
Er19     V28    10.0   .     S
Er19     Ti51    10.0   .     S
Er19     Ti49    10.0   .     S
Er20     V28    10.0   .     S
Er20     V27    10.0   1_556     S
Er20     Ti52    10.0   .     S
Er20     Ti50    10.0   .     S
Er21     V1    10.0   1_655     S
Er21     V29    10.0   .     S
Er21     V30    10.0   .     S
Er21     Ti53    10.0   .     S
Er21     Ti55    10.0   1_545     S
Er22     V2    10.0   1_655     S
Er22     V30    10.0   .     S
Er22     V29    10.0   1_556     S
Er22     Ti54    10.0   .     S
Er22     Ti56    10.0   1_545     S
Er23     V3    10.0   1_655     S
Er23     V31    10.0   .     S
Er23     V32    10.0   .     S
Er23     Ti55    10.0   .     S
Er23     Ti53    10.0   .     S
Er24     V4    10.0   1_655     S
Er24     V32    10.0   .     S
Er24     V31    10.0   1_556     S
Er24     Ti56    10.0   .     S
Er24     Ti54    10.0   .     S
V25     Er18    10.0   1_554     S
V25     Er41    10.0   .     S
V25     Er43    10.0   1_545     S
V26     Er42    10.0   .     S
V26     Er44    10.0   1_545     S
V27     Er20    10.0   1_554     S
V27     Er43    10.0   .     S
V27     Er41    10.0   .     S
V28     Er44    10.0   .     S
V28     Er42    10.0   .     S
V29     Er22    10.0   1_554     S
V29     Er45    10.0   .     S
V29     Er47    10.0   1_545     S
V30     Er46    10.0   .     S
V30     Er48    10.0   1_545     S
V31     Er24    10.0   1_554     S
V31     Er47    10.0   .     S
V31     Er45    10.0   .     S
V32     Er48    10.0   .     S
V32     Er46    10.0   .     S
V33     Er10    10.0   1_554     S
V33     Er41    10.0   .     S
V33     Er45    10.0   1_455     S
V34     Er42    10.0   .     S
V34     Er46    10.0   1_455     S
V35     Er12    10.0   1_554     S
V35     Er43    10.0   .     S
V35     Er47    10.0   1_455     S
V36     Er44    10.0   .     S
V36     Er48    10.0   1_455     S
V37     Er14    10.0   1_554     S
V37     Er45    10.0   .     S
V37     Er41    10.0   .     S
V38     Er46    10.0   .     S
V38     Er42    10.0   .     S
V39     Er16    10.0   1_554     S
V39     Er47    10.0   .     S
V39     Er43    10.0   .     S
V40     Er48    10.0   .     S
V40     Er44    10.0   .     S
Er41     Ti49    10.0   .     S
Er41     Ti50    10.0   1_554     S
Er42     Ti50    10.0   .     S
Er42     Ti49    10.0   .     S
Er43     V25    10.0   1_565     S
Er43     Ti51    10.0   .     S
Er43     Ti52    10.0   1_554     S
Er44     V26    10.0   1_565     S
Er44     Ti52    10.0   .     S
Er44     Ti51    10.0   .     S
Er45     V33    10.0   1_655     S
Er45     Ti53    10.0   .     S
Er45     Ti54    10.0   1_554     S
Er46     V34    10.0   1_655     S
Er46     Ti54    10.0   .     S
Er46     Ti53    10.0   .     S
Er47     V35    10.0   1_655     S
Er47     V29    10.0   1_565     S
Er47     Ti55    10.0   .     S
Er47     Ti56    10.0   1_554     S
Er48     V36    10.0   1_655     S
Er48     V30    10.0   1_565     S
Er48     Ti56    10.0   .     S
Er48     Ti55    10.0   .     S
Ti50     Er41    10.0   1_556     S
Ti51     Er17    10.0   1_565     S
Ti52     Er18    10.0   1_565     S
Ti52     Er43    10.0   1_556     S
Ti53     Er9    10.0   1_655     S
Ti54     Er10    10.0   1_655     S
Ti54     Er45    10.0   1_556     S
Ti55     Er11    10.0   1_655     S
Ti55     Er21    10.0   1_565     S
Ti56     Er12    10.0   1_655     S
Ti56     Er22    10.0   1_565     S
Ti56     Er47    10.0   1_556     S
