data_urr
_audit_creation_date              2019-12-31
_audit_creation_method            'Pymatgen'
_symmetry_space_group_name_H-M    'P1'
_symmetry_Int_Tables_number       1
loop_
_symmetry_equiv_pos_as_xyz
  x,y,z
_cell_length_a                    40.0
_cell_length_b                    40.0
_cell_length_c                    40.0
_cell_angle_alpha                 90.0
_cell_angle_beta                 90.0
_cell_angle_gamma                 90.0
loop_
_atom_site_label
_atom_site_type_symbol
_atom_site_fract_x
_atom_site_fract_y
_atom_site_fract_z
Ti1     Ti     0.3333   0.1667   0.1667
Ti2     Ti     0.3333   0.1667   0.6667
Ti3     Ti     0.3333   0.6667   0.1667
Ti4     Ti     0.3333   0.6667   0.6667
Ti5     Ti     0.8333   0.1667   0.1667
Ti6     Ti     0.8333   0.1667   0.6667
Ti7     Ti     0.8333   0.6667   0.1667
Ti8     Ti     0.8333   0.6667   0.6667
Ti9     Ti     0.3333   0.3333   0.1667
Ti10     Ti     0.3333   0.3333   0.6667
Ti11     Ti     0.3333   0.8333   0.1667
Ti12     Ti     0.3333   0.8333   0.6667
Ti13     Ti     0.8333   0.3333   0.1667
Ti14     Ti     0.8333   0.3333   0.6667
Ti15     Ti     0.8333   0.8333   0.1667
Ti16     Ti     0.8333   0.8333   0.6667
Ti17     Ti     0.1667   0.3333   0.1667
Ti18     Ti     0.1667   0.3333   0.6667
Ti19     Ti     0.1667   0.8333   0.1667
Ti20     Ti     0.1667   0.8333   0.6667
Ti21     Ti     0.6667   0.3333   0.1667
Ti22     Ti     0.6667   0.3333   0.6667
Ti23     Ti     0.6667   0.8333   0.1667
Ti24     Ti     0.6667   0.8333   0.6667
Ti25     Ti     0.1667   0.3333   0.3333
Ti26     Ti     0.1667   0.3333   0.8333
Ti27     Ti     0.1667   0.8333   0.3333
Ti28     Ti     0.1667   0.8333   0.8333
Ti29     Ti     0.6667   0.3333   0.3333
Ti30     Ti     0.6667   0.3333   0.8333
Ti31     Ti     0.6667   0.8333   0.3333
Ti32     Ti     0.6667   0.8333   0.8333
Ti33     Ti     0.3333   0.1667   0.3333
Ti34     Ti     0.3333   0.1667   0.8333
Ti35     Ti     0.3333   0.6667   0.3333
Ti36     Ti     0.3333   0.6667   0.8333
Ti37     Ti     0.8333   0.1667   0.3333
Ti38     Ti     0.8333   0.1667   0.8333
Ti39     Ti     0.8333   0.6667   0.3333
Ti40     Ti     0.8333   0.6667   0.8333
Ti41     Ti     0.3333   0.3333   0.3333
Ti42     Ti     0.3333   0.3333   0.8333
Ti43     Ti     0.3333   0.8333   0.3333
Ti44     Ti     0.3333   0.8333   0.8333
Ti45     Ti     0.8333   0.3333   0.3333
Ti46     Ti     0.8333   0.3333   0.8333
Ti47     Ti     0.8333   0.8333   0.3333
Ti48     Ti     0.8333   0.8333   0.8333
Ti49     Ti     0.1667   0.1667   0.3333
Ti50     Ti     0.1667   0.1667   0.8333
Ti51     Ti     0.1667   0.6667   0.3333
Ti52     Ti     0.1667   0.6667   0.8333
Ti53     Ti     0.6667   0.1667   0.3333
Ti54     Ti     0.6667   0.1667   0.8333
Ti55     Ti     0.6667   0.6667   0.3333
Ti56     Ti     0.6667   0.6667   0.8333
Ti57     Ti     0.1667   0.1667   0.1667
Ti58     Ti     0.1667   0.1667   0.6667
Ti59     Ti     0.1667   0.6667   0.1667
Ti60     Ti     0.1667   0.6667   0.6667
Ti61     Ti     0.6667   0.1667   0.1667
Ti62     Ti     0.6667   0.1667   0.6667
Ti63     Ti     0.6667   0.6667   0.1667
Ti64     Ti     0.6667   0.6667   0.6667
V65     V     0.0   0.0   0.25
V66     V     0.0   0.0   0.75
V67     V     0.0   0.5   0.25
V68     V     0.0   0.5   0.75
V69     V     0.5   0.0   0.25
V70     V     0.5   0.0   0.75
V71     V     0.5   0.5   0.25
V72     V     0.5   0.5   0.75
V73     V     0.25   0.0   0.0
V74     V     0.25   0.0   0.5
V75     V     0.25   0.5   0.0
V76     V     0.25   0.5   0.5
V77     V     0.75   0.0   0.0
V78     V     0.75   0.0   0.5
V79     V     0.75   0.5   0.0
V80     V     0.75   0.5   0.5
V81     V     0.0   0.25   0.0
V82     V     0.0   0.25   0.5
V83     V     0.0   0.75   0.0
V84     V     0.0   0.75   0.5
V85     V     0.5   0.25   0.0
V86     V     0.5   0.25   0.5
V87     V     0.5   0.75   0.0
V88     V     0.5   0.75   0.5
Er89     Er     0.0   0.25   0.25
Er90     Er     0.0   0.25   0.75
Er91     Er     0.0   0.75   0.25
Er92     Er     0.0   0.75   0.75
Er93     Er     0.5   0.25   0.25
Er94     Er     0.5   0.25   0.75
Er95     Er     0.5   0.75   0.25
Er96     Er     0.5   0.75   0.75
Er97     Er     0.25   0.0   0.25
Er98     Er     0.25   0.0   0.75
Er99     Er     0.25   0.5   0.25
Er100     Er     0.25   0.5   0.75
Er101     Er     0.75   0.0   0.25
Er102     Er     0.75   0.0   0.75
Er103     Er     0.75   0.5   0.25
Er104     Er     0.75   0.5   0.75
Er105     Er     0.25   0.25   0.0
Er106     Er     0.25   0.25   0.5
Er107     Er     0.25   0.75   0.0
Er108     Er     0.25   0.75   0.5
Er109     Er     0.75   0.25   0.0
Er110     Er     0.75   0.25   0.5
Er111     Er     0.75   0.75   0.0
Er112     Er     0.75   0.75   0.5
loop_
_geom_bond_atom_site_label_1
_geom_bond_atom_site_label_2
_geom_bond_distance
_geom_bond_site_symmetry_2
_ccdc_geom_bond_type
Ti1     V73    10.0   .     S
Ti1     V85    10.0   .     S
Ti1     V69    10.0   .     S
Ti2     V74    10.0   .     S
Ti2     V86    10.0   .     S
Ti2     V70    10.0   .     S
Ti3     V75    10.0   .     S
Ti3     V87    10.0   .     S
Ti3     V71    10.0   .     S
Ti4     V76    10.0   .     S
Ti4     V88    10.0   .     S
Ti4     V72    10.0   .     S
Ti5     V77    10.0   .     S
Ti5     V81    10.0   1_655     S
Ti5     V65    10.0   1_655     S
Ti6     V78    10.0   .     S
Ti6     V82    10.0   1_655     S
Ti6     V66    10.0   1_655     S
Ti7     V79    10.0   .     S
Ti7     V83    10.0   1_655     S
Ti7     V67    10.0   1_655     S
Ti8     V80    10.0   .     S
Ti8     V84    10.0   1_655     S
Ti8     V68    10.0   1_655     S
Ti9     V75    10.0   .     S
Ti9     V85    10.0   .     S
Ti9     V71    10.0   .     S
Ti10     V76    10.0   .     S
Ti10     V86    10.0   .     S
Ti10     V72    10.0   .     S
Ti11     V73    10.0   1_565     S
Ti11     V87    10.0   .     S
Ti11     V69    10.0   1_565     S
Ti12     V74    10.0   1_565     S
Ti12     V88    10.0   .     S
Ti12     V70    10.0   1_565     S
Ti13     V79    10.0   .     S
Ti13     V81    10.0   1_655     S
Ti13     V67    10.0   1_655     S
Ti14     V80    10.0   .     S
Ti14     V82    10.0   1_655     S
Ti14     V68    10.0   1_655     S
Ti15     V77    10.0   1_565     S
Ti15     V83    10.0   1_655     S
Ti15     V65    10.0   1_665     S
Ti16     V78    10.0   1_565     S
Ti16     V84    10.0   1_655     S
Ti16     V66    10.0   1_665     S
Ti17     V75    10.0   .     S
Ti17     V81    10.0   .     S
Ti17     V67    10.0   .     S
Ti18     V76    10.0   .     S
Ti18     V82    10.0   .     S
Ti18     V68    10.0   .     S
Ti19     V73    10.0   1_565     S
Ti19     V83    10.0   .     S
Ti19     V65    10.0   1_565     S
Ti20     V74    10.0   1_565     S
Ti20     V84    10.0   .     S
Ti20     V66    10.0   1_565     S
Ti21     V79    10.0   .     S
Ti21     V85    10.0   .     S
Ti21     V71    10.0   .     S
Ti22     V80    10.0   .     S
Ti22     V86    10.0   .     S
Ti22     V72    10.0   .     S
Ti23     V77    10.0   1_565     S
Ti23     V87    10.0   .     S
Ti23     V69    10.0   1_565     S
Ti24     V78    10.0   1_565     S
Ti24     V88    10.0   .     S
Ti24     V70    10.0   1_565     S
Ti25     V76    10.0   .     S
Ti25     V82    10.0   .     S
Ti25     V67    10.0   .     S
Ti26     V75    10.0   1_556     S
Ti26     V81    10.0   1_556     S
Ti26     V68    10.0   .     S
Ti27     V74    10.0   1_565     S
Ti27     V84    10.0   .     S
Ti27     V65    10.0   1_565     S
Ti28     V73    10.0   1_566     S
Ti28     V83    10.0   1_556     S
Ti28     V66    10.0   1_565     S
Ti29     V80    10.0   .     S
Ti29     V86    10.0   .     S
Ti29     V71    10.0   .     S
Ti30     V79    10.0   1_556     S
Ti30     V85    10.0   1_556     S
Ti30     V72    10.0   .     S
Ti31     V78    10.0   1_565     S
Ti31     V88    10.0   .     S
Ti31     V69    10.0   1_565     S
Ti32     V77    10.0   1_566     S
Ti32     V87    10.0   1_556     S
Ti32     V70    10.0   1_565     S
Ti33     V74    10.0   .     S
Ti33     V86    10.0   .     S
Ti33     V69    10.0   .     S
Ti34     V73    10.0   1_556     S
Ti34     V85    10.0   1_556     S
Ti34     V70    10.0   .     S
Ti35     V76    10.0   .     S
Ti35     V88    10.0   .     S
Ti35     V71    10.0   .     S
Ti36     V75    10.0   1_556     S
Ti36     V87    10.0   1_556     S
Ti36     V72    10.0   .     S
Ti37     V78    10.0   .     S
Ti37     V82    10.0   1_655     S
Ti37     V65    10.0   1_655     S
Ti38     V77    10.0   1_556     S
Ti38     V81    10.0   1_656     S
Ti38     V66    10.0   1_655     S
Ti39     V80    10.0   .     S
Ti39     V84    10.0   1_655     S
Ti39     V67    10.0   1_655     S
Ti40     V79    10.0   1_556     S
Ti40     V83    10.0   1_656     S
Ti40     V68    10.0   1_655     S
Ti41     V76    10.0   .     S
Ti41     V86    10.0   .     S
Ti41     V71    10.0   .     S
Ti42     V75    10.0   1_556     S
Ti42     V85    10.0   1_556     S
Ti42     V72    10.0   .     S
Ti43     V74    10.0   1_565     S
Ti43     V88    10.0   .     S
Ti43     V69    10.0   1_565     S
Ti44     V73    10.0   1_566     S
Ti44     V87    10.0   1_556     S
Ti44     V70    10.0   1_565     S
Ti45     V80    10.0   .     S
Ti45     V82    10.0   1_655     S
Ti45     V67    10.0   1_655     S
Ti46     V79    10.0   1_556     S
Ti46     V81    10.0   1_656     S
Ti46     V68    10.0   1_655     S
Ti47     V78    10.0   1_565     S
Ti47     V84    10.0   1_655     S
Ti47     V65    10.0   1_665     S
Ti48     V77    10.0   1_566     S
Ti48     V83    10.0   1_656     S
Ti48     V66    10.0   1_665     S
Ti49     V74    10.0   .     S
Ti49     V82    10.0   .     S
Ti49     V65    10.0   .     S
Ti50     V73    10.0   1_556     S
Ti50     V81    10.0   1_556     S
Ti50     V66    10.0   .     S
Ti51     V76    10.0   .     S
Ti51     V84    10.0   .     S
Ti51     V67    10.0   .     S
Ti52     V75    10.0   1_556     S
Ti52     V83    10.0   1_556     S
Ti52     V68    10.0   .     S
Ti53     V78    10.0   .     S
Ti53     V86    10.0   .     S
Ti53     V69    10.0   .     S
Ti54     V77    10.0   1_556     S
Ti54     V85    10.0   1_556     S
Ti54     V70    10.0   .     S
Ti55     V80    10.0   .     S
Ti55     V88    10.0   .     S
Ti55     V71    10.0   .     S
Ti56     V79    10.0   1_556     S
Ti56     V87    10.0   1_556     S
Ti56     V72    10.0   .     S
Ti57     V73    10.0   .     S
Ti57     V81    10.0   .     S
Ti57     V65    10.0   .     S
Ti58     V74    10.0   .     S
Ti58     V82    10.0   .     S
Ti58     V66    10.0   .     S
Ti59     V75    10.0   .     S
Ti59     V83    10.0   .     S
Ti59     V67    10.0   .     S
Ti60     V76    10.0   .     S
Ti60     V84    10.0   .     S
Ti60     V68    10.0   .     S
Ti61     V77    10.0   .     S
Ti61     V85    10.0   .     S
Ti61     V69    10.0   .     S
Ti62     V78    10.0   .     S
Ti62     V86    10.0   .     S
Ti62     V70    10.0   .     S
Ti63     V79    10.0   .     S
Ti63     V87    10.0   .     S
Ti63     V71    10.0   .     S
Ti64     V80    10.0   .     S
Ti64     V88    10.0   .     S
Ti64     V72    10.0   .     S
V65     Er89    10.0   .     S
V65     Er97    10.0   .     S
V65     Ti19    10.0   1_545     S
V65     Ti27    10.0   1_545     S
V65     Er91    10.0   1_545     S
V65     Ti15    10.0   1_445     S
V65     Ti47    10.0   1_445     S
V65     Ti5    10.0   1_455     S
V65     Ti37    10.0   1_455     S
V65     Er101    10.0   1_455     S
V66     Er90    10.0   .     S
V66     Er98    10.0   .     S
V66     Ti20    10.0   1_545     S
V66     Ti28    10.0   1_545     S
V66     Er92    10.0   1_545     S
V66     Ti16    10.0   1_445     S
V66     Ti48    10.0   1_445     S
V66     Ti6    10.0   1_455     S
V66     Ti38    10.0   1_455     S
V66     Er102    10.0   1_455     S
V67     Er91    10.0   .     S
V67     Er99    10.0   .     S
V67     Er89    10.0   .     S
V67     Ti13    10.0   1_455     S
V67     Ti45    10.0   1_455     S
V67     Ti7    10.0   1_455     S
V67     Ti39    10.0   1_455     S
V67     Er103    10.0   1_455     S
V68     Er92    10.0   .     S
V68     Er100    10.0   .     S
V68     Er90    10.0   .     S
V68     Ti14    10.0   1_455     S
V68     Ti46    10.0   1_455     S
V68     Ti8    10.0   1_455     S
V68     Ti40    10.0   1_455     S
V68     Er104    10.0   1_455     S
V69     Er93    10.0   .     S
V69     Er101    10.0   .     S
V69     Ti23    10.0   1_545     S
V69     Ti31    10.0   1_545     S
V69     Er95    10.0   1_545     S
V69     Ti11    10.0   1_545     S
V69     Ti43    10.0   1_545     S
V69     Er97    10.0   .     S
V70     Er94    10.0   .     S
V70     Er102    10.0   .     S
V70     Ti24    10.0   1_545     S
V70     Ti32    10.0   1_545     S
V70     Er96    10.0   1_545     S
V70     Ti12    10.0   1_545     S
V70     Ti44    10.0   1_545     S
V70     Er98    10.0   .     S
V71     Er95    10.0   .     S
V71     Er103    10.0   .     S
V71     Er93    10.0   .     S
V71     Er99    10.0   .     S
V72     Er96    10.0   .     S
V72     Er104    10.0   .     S
V72     Er94    10.0   .     S
V72     Er100    10.0   .     S
V73     Ti34    10.0   1_554     S
V73     Ti50    10.0   1_554     S
V73     Er98    10.0   1_554     S
V73     Ti28    10.0   1_544     S
V73     Ti44    10.0   1_544     S
V73     Ti11    10.0   1_545     S
V73     Ti19    10.0   1_545     S
V73     Er107    10.0   1_545     S
V73     Er97    10.0   .     S
V73     Er105    10.0   .     S
V74     Er97    10.0   .     S
V74     Ti27    10.0   1_545     S
V74     Ti43    10.0   1_545     S
V74     Ti12    10.0   1_545     S
V74     Ti20    10.0   1_545     S
V74     Er108    10.0   1_545     S
V74     Er98    10.0   .     S
V74     Er106    10.0   .     S
V75     Ti36    10.0   1_554     S
V75     Ti52    10.0   1_554     S
V75     Er100    10.0   1_554     S
V75     Ti26    10.0   1_554     S
V75     Ti42    10.0   1_554     S
V75     Er105    10.0   .     S
V75     Er99    10.0   .     S
V75     Er107    10.0   .     S
V76     Er99    10.0   .     S
V76     Er106    10.0   .     S
V76     Er100    10.0   .     S
V76     Er108    10.0   .     S
V77     Ti38    10.0   1_554     S
V77     Ti54    10.0   1_554     S
V77     Er102    10.0   1_554     S
V77     Ti32    10.0   1_544     S
V77     Ti48    10.0   1_544     S
V77     Ti15    10.0   1_545     S
V77     Ti23    10.0   1_545     S
V77     Er111    10.0   1_545     S
V77     Er101    10.0   .     S
V77     Er109    10.0   .     S
V78     Er101    10.0   .     S
V78     Ti31    10.0   1_545     S
V78     Ti47    10.0   1_545     S
V78     Ti16    10.0   1_545     S
V78     Ti24    10.0   1_545     S
V78     Er112    10.0   1_545     S
V78     Er102    10.0   .     S
V78     Er110    10.0   .     S
V79     Ti40    10.0   1_554     S
V79     Ti56    10.0   1_554     S
V79     Er104    10.0   1_554     S
V79     Ti30    10.0   1_554     S
V79     Ti46    10.0   1_554     S
V79     Er109    10.0   .     S
V79     Er103    10.0   .     S
V79     Er111    10.0   .     S
V80     Er103    10.0   .     S
V80     Er110    10.0   .     S
V80     Er104    10.0   .     S
V80     Er112    10.0   .     S
V81     Ti50    10.0   1_554     S
V81     Ti26    10.0   1_554     S
V81     Er90    10.0   1_554     S
V81     Ti46    10.0   1_454     S
V81     Ti38    10.0   1_454     S
V81     Ti5    10.0   1_455     S
V81     Ti13    10.0   1_455     S
V81     Er109    10.0   1_455     S
V81     Er89    10.0   .     S
V81     Er105    10.0   .     S
V82     Er89    10.0   .     S
V82     Ti45    10.0   1_455     S
V82     Ti37    10.0   1_455     S
V82     Ti6    10.0   1_455     S
V82     Ti14    10.0   1_455     S
V82     Er110    10.0   1_455     S
V82     Er90    10.0   .     S
V82     Er106    10.0   .     S
V83     Ti52    10.0   1_554     S
V83     Ti28    10.0   1_554     S
V83     Er92    10.0   1_554     S
V83     Ti48    10.0   1_454     S
V83     Ti40    10.0   1_454     S
V83     Ti7    10.0   1_455     S
V83     Ti15    10.0   1_455     S
V83     Er111    10.0   1_455     S
V83     Er91    10.0   .     S
V83     Er107    10.0   .     S
V84     Er91    10.0   .     S
V84     Ti47    10.0   1_455     S
V84     Ti39    10.0   1_455     S
V84     Ti8    10.0   1_455     S
V84     Ti16    10.0   1_455     S
V84     Er112    10.0   1_455     S
V84     Er92    10.0   .     S
V84     Er108    10.0   .     S
V85     Ti54    10.0   1_554     S
V85     Ti30    10.0   1_554     S
V85     Er94    10.0   1_554     S
V85     Ti42    10.0   1_554     S
V85     Ti34    10.0   1_554     S
V85     Er105    10.0   .     S
V85     Er93    10.0   .     S
V85     Er109    10.0   .     S
V86     Er93    10.0   .     S
V86     Er106    10.0   .     S
V86     Er94    10.0   .     S
V86     Er110    10.0   .     S
V87     Ti56    10.0   1_554     S
V87     Ti32    10.0   1_554     S
V87     Er96    10.0   1_554     S
V87     Ti44    10.0   1_554     S
V87     Ti36    10.0   1_554     S
V87     Er107    10.0   .     S
V87     Er95    10.0   .     S
V87     Er111    10.0   .     S
V88     Er95    10.0   .     S
V88     Er108    10.0   .     S
V88     Er96    10.0   .     S
V88     Er112    10.0   .     S
Er90     V81    10.0   1_556     S
Er91     V65    10.0   1_565     S
Er92     V83    10.0   1_556     S
Er92     V66    10.0   1_565     S
Er94     V85    10.0   1_556     S
Er95     V69    10.0   1_565     S
Er96     V87    10.0   1_556     S
Er96     V70    10.0   1_565     S
Er98     V73    10.0   1_556     S
Er100     V75    10.0   1_556     S
Er101     V65    10.0   1_655     S
Er102     V77    10.0   1_556     S
Er102     V66    10.0   1_655     S
Er103     V67    10.0   1_655     S
Er104     V79    10.0   1_556     S
Er104     V68    10.0   1_655     S
Er107     V73    10.0   1_565     S
Er108     V74    10.0   1_565     S
Er109     V81    10.0   1_655     S
Er110     V82    10.0   1_655     S
Er111     V77    10.0   1_565     S
Er111     V83    10.0   1_655     S
Er112     V78    10.0   1_565     S
Er112     V84    10.0   1_655     S
