data_xaz
_audit_creation_date              2019-12-31
_audit_creation_method            'Pymatgen'
_symmetry_space_group_name_H-M    'P1'
_symmetry_Int_Tables_number       1
loop_
_symmetry_equiv_pos_as_xyz
  x,y,z
_cell_length_a                    43.923
_cell_length_b                    43.923
_cell_length_c                    43.923
_cell_angle_alpha                 90.0
_cell_angle_beta                 90.0
_cell_angle_gamma                 90.0
loop_
_atom_site_label
_atom_site_type_symbol
_atom_site_fract_x
_atom_site_fract_y
_atom_site_fract_z
Er1     Er     0.125   0.375   0.125
Er2     Er     0.125   0.375   0.625
Er3     Er     0.125   0.875   0.125
Er4     Er     0.125   0.875   0.625
Er5     Er     0.625   0.375   0.125
Er6     Er     0.625   0.375   0.625
Er7     Er     0.625   0.875   0.125
Er8     Er     0.625   0.875   0.625
Er9     Er     0.375   0.125   0.125
Er10     Er     0.375   0.125   0.625
Er11     Er     0.375   0.625   0.125
Er12     Er     0.375   0.625   0.625
Er13     Er     0.875   0.125   0.125
Er14     Er     0.875   0.125   0.625
Er15     Er     0.875   0.625   0.125
Er16     Er     0.875   0.625   0.625
Er17     Er     0.125   0.375   0.375
Er18     Er     0.125   0.375   0.875
Er19     Er     0.125   0.875   0.375
Er20     Er     0.125   0.875   0.875
Er21     Er     0.625   0.375   0.375
Er22     Er     0.625   0.375   0.875
Er23     Er     0.625   0.875   0.375
Er24     Er     0.625   0.875   0.875
Er25     Er     0.375   0.375   0.375
Er26     Er     0.375   0.375   0.875
Er27     Er     0.375   0.875   0.375
Er28     Er     0.375   0.875   0.875
Er29     Er     0.875   0.375   0.375
Er30     Er     0.875   0.375   0.875
Er31     Er     0.875   0.875   0.375
Er32     Er     0.875   0.875   0.875
Er33     Er     0.375   0.375   0.125
Er34     Er     0.375   0.375   0.625
Er35     Er     0.375   0.875   0.125
Er36     Er     0.375   0.875   0.625
Er37     Er     0.875   0.375   0.125
Er38     Er     0.875   0.375   0.625
Er39     Er     0.875   0.875   0.125
Er40     Er     0.875   0.875   0.625
Er41     Er     0.375   0.125   0.375
Er42     Er     0.375   0.125   0.875
Er43     Er     0.375   0.625   0.375
Er44     Er     0.375   0.625   0.875
Er45     Er     0.875   0.125   0.375
Er46     Er     0.875   0.125   0.875
Er47     Er     0.875   0.625   0.375
Er48     Er     0.875   0.625   0.875
Er49     Er     0.125   0.125   0.375
Er50     Er     0.125   0.125   0.875
Er51     Er     0.125   0.625   0.375
Er52     Er     0.125   0.625   0.875
Er53     Er     0.625   0.125   0.375
Er54     Er     0.625   0.125   0.875
Er55     Er     0.625   0.625   0.375
Er56     Er     0.625   0.625   0.875
Er57     Er     0.125   0.125   0.125
Er58     Er     0.125   0.125   0.625
Er59     Er     0.125   0.625   0.125
Er60     Er     0.125   0.625   0.625
Er61     Er     0.625   0.125   0.125
Er62     Er     0.625   0.125   0.625
Er63     Er     0.625   0.625   0.125
Er64     Er     0.625   0.625   0.625
V65     V     0.0   0.0   0.25
V66     V     0.0   0.0   0.75
V67     V     0.0   0.5   0.25
V68     V     0.0   0.5   0.75
V69     V     0.5   0.0   0.25
V70     V     0.5   0.0   0.75
V71     V     0.5   0.5   0.25
V72     V     0.5   0.5   0.75
V73     V     0.25   0.0   0.0
V74     V     0.25   0.0   0.5
V75     V     0.25   0.5   0.0
V76     V     0.25   0.5   0.5
V77     V     0.75   0.0   0.0
V78     V     0.75   0.0   0.5
V79     V     0.75   0.5   0.0
V80     V     0.75   0.5   0.5
V81     V     0.0   0.25   0.0
V82     V     0.0   0.25   0.5
V83     V     0.0   0.75   0.0
V84     V     0.0   0.75   0.5
V85     V     0.5   0.25   0.0
V86     V     0.5   0.25   0.5
V87     V     0.5   0.75   0.0
V88     V     0.5   0.75   0.5
V89     V     0.25   0.25   0.0
V90     V     0.25   0.25   0.5
V91     V     0.25   0.75   0.0
V92     V     0.25   0.75   0.5
V93     V     0.75   0.25   0.0
V94     V     0.75   0.25   0.5
V95     V     0.75   0.75   0.0
V96     V     0.75   0.75   0.5
V97     V     0.0   0.25   0.25
V98     V     0.0   0.25   0.75
V99     V     0.0   0.75   0.25
V100     V     0.0   0.75   0.75
V101     V     0.5   0.25   0.25
V102     V     0.5   0.25   0.75
V103     V     0.5   0.75   0.25
V104     V     0.5   0.75   0.75
V105     V     0.25   0.0   0.25
V106     V     0.25   0.0   0.75
V107     V     0.25   0.5   0.25
V108     V     0.25   0.5   0.75
V109     V     0.75   0.0   0.25
V110     V     0.75   0.0   0.75
V111     V     0.75   0.5   0.25
V112     V     0.75   0.5   0.75
loop_
_geom_bond_atom_site_label_1
_geom_bond_atom_site_label_2
_geom_bond_distance
_geom_bond_site_symmetry_2
_ccdc_geom_bond_type
Er1     V89    9.51   .     S
Er1     V81    9.51   .     S
Er1     V97    9.51   .     S
Er1     V67    9.51   .     S
Er1     V75    9.51   .     S
Er1     V107    9.51   .     S
Er1     Er18    10.981   1_554     S
Er1     Er37    10.981   1_455     S
Er1     Er59    10.981   .     S
Er1     Er17    10.981   .     S
Er1     Er33    10.981   .     S
Er1     Er57    10.981   .     S
Er2     V90    9.51   .     S
Er2     V82    9.51   .     S
Er2     V98    9.51   .     S
Er2     V68    9.51   .     S
Er2     V76    9.51   .     S
Er2     V108    9.51   .     S
Er2     Er17    10.981   .     S
Er2     Er38    10.981   1_455     S
Er2     Er60    10.981   .     S
Er2     Er18    10.981   .     S
Er2     Er34    10.981   .     S
Er2     Er58    10.981   .     S
Er3     V91    9.51   .     S
Er3     V83    9.51   .     S
Er3     V99    9.51   .     S
Er3     V65    9.51   1_565     S
Er3     V73    9.51   1_565     S
Er3     V105    9.51   1_565     S
Er3     Er20    10.981   1_554     S
Er3     Er39    10.981   1_455     S
Er3     Er57    10.981   1_565     S
Er3     Er19    10.981   .     S
Er3     Er35    10.981   .     S
Er3     Er59    10.981   .     S
Er4     V92    9.51   .     S
Er4     V84    9.51   .     S
Er4     V100    9.51   .     S
Er4     V66    9.51   1_565     S
Er4     V74    9.51   1_565     S
Er4     V106    9.51   1_565     S
Er4     Er19    10.981   .     S
Er4     Er40    10.981   1_455     S
Er4     Er58    10.981   1_565     S
Er4     Er20    10.981   .     S
Er4     Er36    10.981   .     S
Er4     Er60    10.981   .     S
Er5     V93    9.51   .     S
Er5     V85    9.51   .     S
Er5     V101    9.51   .     S
Er5     V71    9.51   .     S
Er5     V79    9.51   .     S
Er5     V111    9.51   .     S
Er5     Er22    10.981   1_554     S
Er5     Er33    10.981   .     S
Er5     Er63    10.981   .     S
Er5     Er21    10.981   .     S
Er5     Er37    10.981   .     S
Er5     Er61    10.981   .     S
Er6     V94    9.51   .     S
Er6     V86    9.51   .     S
Er6     V102    9.51   .     S
Er6     V72    9.51   .     S
Er6     V80    9.51   .     S
Er6     V112    9.51   .     S
Er6     Er21    10.981   .     S
Er6     Er34    10.981   .     S
Er6     Er64    10.981   .     S
Er6     Er22    10.981   .     S
Er6     Er38    10.981   .     S
Er6     Er62    10.981   .     S
Er7     V95    9.51   .     S
Er7     V87    9.51   .     S
Er7     V103    9.51   .     S
Er7     V69    9.51   1_565     S
Er7     V77    9.51   1_565     S
Er7     V109    9.51   1_565     S
Er7     Er24    10.981   1_554     S
Er7     Er35    10.981   .     S
Er7     Er61    10.981   1_565     S
Er7     Er23    10.981   .     S
Er7     Er39    10.981   .     S
Er7     Er63    10.981   .     S
Er8     V96    9.51   .     S
Er8     V88    9.51   .     S
Er8     V104    9.51   .     S
Er8     V70    9.51   1_565     S
Er8     V78    9.51   1_565     S
Er8     V110    9.51   1_565     S
Er8     Er23    10.981   .     S
Er8     Er36    10.981   .     S
Er8     Er62    10.981   1_565     S
Er8     Er24    10.981   .     S
Er8     Er40    10.981   .     S
Er8     Er64    10.981   .     S
Er9     V89    9.51   .     S
Er9     V73    9.51   .     S
Er9     V105    9.51   .     S
Er9     V69    9.51   .     S
Er9     V85    9.51   .     S
Er9     V101    9.51   .     S
Er9     Er42    10.981   1_554     S
Er9     Er61    10.981   .     S
Er9     Er35    10.981   1_545     S
Er9     Er41    10.981   .     S
Er9     Er33    10.981   .     S
Er9     Er57    10.981   .     S
Er10     V90    9.51   .     S
Er10     V74    9.51   .     S
Er10     V106    9.51   .     S
Er10     V70    9.51   .     S
Er10     V86    9.51   .     S
Er10     V102    9.51   .     S
Er10     Er41    10.981   .     S
Er10     Er62    10.981   .     S
Er10     Er36    10.981   1_545     S
Er10     Er42    10.981   .     S
Er10     Er34    10.981   .     S
Er10     Er58    10.981   .     S
Er11     V91    9.51   .     S
Er11     V75    9.51   .     S
Er11     V107    9.51   .     S
Er11     V71    9.51   .     S
Er11     V87    9.51   .     S
Er11     V103    9.51   .     S
Er11     Er44    10.981   1_554     S
Er11     Er63    10.981   .     S
Er11     Er33    10.981   .     S
Er11     Er43    10.981   .     S
Er11     Er35    10.981   .     S
Er11     Er59    10.981   .     S
Er12     V92    9.51   .     S
Er12     V76    9.51   .     S
Er12     V108    9.51   .     S
Er12     V72    9.51   .     S
Er12     V88    9.51   .     S
Er12     V104    9.51   .     S
Er12     Er43    10.981   .     S
Er12     Er64    10.981   .     S
Er12     Er34    10.981   .     S
Er12     Er44    10.981   .     S
Er12     Er36    10.981   .     S
Er12     Er60    10.981   .     S
Er13     V93    9.51   .     S
Er13     V77    9.51   .     S
Er13     V109    9.51   .     S
Er13     V65    9.51   1_655     S
Er13     V81    9.51   1_655     S
Er13     V97    9.51   1_655     S
Er13     Er46    10.981   1_554     S
Er13     Er57    10.981   1_655     S
Er13     Er39    10.981   1_545     S
Er13     Er45    10.981   .     S
Er13     Er37    10.981   .     S
Er13     Er61    10.981   .     S
Er14     V94    9.51   .     S
Er14     V78    9.51   .     S
Er14     V110    9.51   .     S
Er14     V66    9.51   1_655     S
Er14     V82    9.51   1_655     S
Er14     V98    9.51   1_655     S
Er14     Er45    10.981   .     S
Er14     Er58    10.981   1_655     S
Er14     Er40    10.981   1_545     S
Er14     Er46    10.981   .     S
Er14     Er38    10.981   .     S
Er14     Er62    10.981   .     S
Er15     V95    9.51   .     S
Er15     V79    9.51   .     S
Er15     V111    9.51   .     S
Er15     V67    9.51   1_655     S
Er15     V83    9.51   1_655     S
Er15     V99    9.51   1_655     S
Er15     Er48    10.981   1_554     S
Er15     Er59    10.981   1_655     S
Er15     Er37    10.981   .     S
Er15     Er47    10.981   .     S
Er15     Er39    10.981   .     S
Er15     Er63    10.981   .     S
Er16     V96    9.51   .     S
Er16     V80    9.51   .     S
Er16     V112    9.51   .     S
Er16     V68    9.51   1_655     S
Er16     V84    9.51   1_655     S
Er16     V100    9.51   1_655     S
Er16     Er47    10.981   .     S
Er16     Er60    10.981   1_655     S
Er16     Er38    10.981   .     S
Er16     Er48    10.981   .     S
Er16     Er40    10.981   .     S
Er16     Er64    10.981   .     S
Er17     V97    9.51   .     S
Er17     V67    9.51   .     S
Er17     V82    9.51   .     S
Er17     V90    9.51   .     S
Er17     V107    9.51   .     S
Er17     V76    9.51   .     S
Er17     Er29    10.981   1_455     S
Er17     Er51    10.981   .     S
Er17     Er25    10.981   .     S
Er17     Er49    10.981   .     S
Er18     V98    9.51   .     S
Er18     V68    9.51   .     S
Er18     V81    9.51   1_556     S
Er18     V89    9.51   1_556     S
Er18     V108    9.51   .     S
Er18     V75    9.51   1_556     S
Er18     Er1    10.981   1_556     S
Er18     Er30    10.981   1_455     S
Er18     Er52    10.981   .     S
Er18     Er26    10.981   .     S
Er18     Er50    10.981   .     S
Er19     V99    9.51   .     S
Er19     V65    9.51   1_565     S
Er19     V84    9.51   .     S
Er19     V92    9.51   .     S
Er19     V105    9.51   1_565     S
Er19     V74    9.51   1_565     S
Er19     Er31    10.981   1_455     S
Er19     Er49    10.981   1_565     S
Er19     Er27    10.981   .     S
Er19     Er51    10.981   .     S
Er20     V100    9.51   .     S
Er20     V66    9.51   1_565     S
Er20     V83    9.51   1_556     S
Er20     V91    9.51   1_556     S
Er20     V106    9.51   1_565     S
Er20     V73    9.51   1_566     S
Er20     Er3    10.981   1_556     S
Er20     Er32    10.981   1_455     S
Er20     Er50    10.981   1_565     S
Er20     Er28    10.981   .     S
Er20     Er52    10.981   .     S
Er21     V101    9.51   .     S
Er21     V71    9.51   .     S
Er21     V86    9.51   .     S
Er21     V94    9.51   .     S
Er21     V111    9.51   .     S
Er21     V80    9.51   .     S
Er21     Er25    10.981   .     S
Er21     Er55    10.981   .     S
Er21     Er29    10.981   .     S
Er21     Er53    10.981   .     S
Er22     V102    9.51   .     S
Er22     V72    9.51   .     S
Er22     V85    9.51   1_556     S
Er22     V93    9.51   1_556     S
Er22     V112    9.51   .     S
Er22     V79    9.51   1_556     S
Er22     Er5    10.981   1_556     S
Er22     Er26    10.981   .     S
Er22     Er56    10.981   .     S
Er22     Er30    10.981   .     S
Er22     Er54    10.981   .     S
Er23     V103    9.51   .     S
Er23     V69    9.51   1_565     S
Er23     V88    9.51   .     S
Er23     V96    9.51   .     S
Er23     V109    9.51   1_565     S
Er23     V78    9.51   1_565     S
Er23     Er27    10.981   .     S
Er23     Er53    10.981   1_565     S
Er23     Er31    10.981   .     S
Er23     Er55    10.981   .     S
Er24     V104    9.51   .     S
Er24     V70    9.51   1_565     S
Er24     V87    9.51   1_556     S
Er24     V95    9.51   1_556     S
Er24     V110    9.51   1_565     S
Er24     V77    9.51   1_566     S
Er24     Er7    10.981   1_556     S
Er24     Er28    10.981   .     S
Er24     Er54    10.981   1_565     S
Er24     Er32    10.981   .     S
Er24     Er56    10.981   .     S
Er25     V101    9.51   .     S
Er25     V90    9.51   .     S
Er25     V107    9.51   .     S
Er25     V71    9.51   .     S
Er25     V86    9.51   .     S
Er25     V76    9.51   .     S
Er25     Er34    10.981   .     S
Er25     Er43    10.981   .     S
Er25     Er33    10.981   .     S
Er25     Er41    10.981   .     S
Er26     V102    9.51   .     S
Er26     V89    9.51   1_556     S
Er26     V108    9.51   .     S
Er26     V72    9.51   .     S
Er26     V85    9.51   1_556     S
Er26     V75    9.51   1_556     S
Er26     Er33    10.981   1_556     S
Er26     Er44    10.981   .     S
Er26     Er34    10.981   .     S
Er26     Er42    10.981   .     S
Er27     V103    9.51   .     S
Er27     V92    9.51   .     S
Er27     V105    9.51   1_565     S
Er27     V69    9.51   1_565     S
Er27     V88    9.51   .     S
Er27     V74    9.51   1_565     S
Er27     Er36    10.981   .     S
Er27     Er41    10.981   1_565     S
Er27     Er35    10.981   .     S
Er27     Er43    10.981   .     S
Er28     V104    9.51   .     S
Er28     V91    9.51   1_556     S
Er28     V106    9.51   1_565     S
Er28     V70    9.51   1_565     S
Er28     V87    9.51   1_556     S
Er28     V73    9.51   1_566     S
Er28     Er35    10.981   1_556     S
Er28     Er42    10.981   1_565     S
Er28     Er36    10.981   .     S
Er28     Er44    10.981   .     S
Er29     V97    9.51   1_655     S
Er29     V94    9.51   .     S
Er29     V111    9.51   .     S
Er29     V67    9.51   1_655     S
Er29     V82    9.51   1_655     S
Er29     V80    9.51   .     S
Er29     Er17    10.981   1_655     S
Er29     Er38    10.981   .     S
Er29     Er47    10.981   .     S
Er29     Er37    10.981   .     S
Er29     Er45    10.981   .     S
Er30     V98    9.51   1_655     S
Er30     V93    9.51   1_556     S
Er30     V112    9.51   .     S
Er30     V68    9.51   1_655     S
Er30     V81    9.51   1_656     S
Er30     V79    9.51   1_556     S
Er30     Er18    10.981   1_655     S
Er30     Er37    10.981   1_556     S
Er30     Er48    10.981   .     S
Er30     Er38    10.981   .     S
Er30     Er46    10.981   .     S
Er31     V99    9.51   1_655     S
Er31     V96    9.51   .     S
Er31     V109    9.51   1_565     S
Er31     V65    9.51   1_665     S
Er31     V84    9.51   1_655     S
Er31     V78    9.51   1_565     S
Er31     Er19    10.981   1_655     S
Er31     Er40    10.981   .     S
Er31     Er45    10.981   1_565     S
Er31     Er39    10.981   .     S
Er31     Er47    10.981   .     S
Er32     V100    9.51   1_655     S
Er32     V95    9.51   1_556     S
Er32     V110    9.51   1_565     S
Er32     V66    9.51   1_665     S
Er32     V83    9.51   1_656     S
Er32     V77    9.51   1_566     S
Er32     Er20    10.981   1_655     S
Er32     Er39    10.981   1_556     S
Er32     Er46    10.981   1_565     S
Er32     Er40    10.981   .     S
Er32     Er48    10.981   .     S
Er33     V89    9.51   .     S
Er33     V75    9.51   .     S
Er33     V85    9.51   .     S
Er33     V107    9.51   .     S
Er33     V101    9.51   .     S
Er33     V71    9.51   .     S
Er33     Er26    10.981   1_554     S
Er34     V90    9.51   .     S
Er34     V76    9.51   .     S
Er34     V86    9.51   .     S
Er34     V108    9.51   .     S
Er34     V102    9.51   .     S
Er34     V72    9.51   .     S
Er35     V91    9.51   .     S
Er35     V73    9.51   1_565     S
Er35     V87    9.51   .     S
Er35     V105    9.51   1_565     S
Er35     V103    9.51   .     S
Er35     V69    9.51   1_565     S
Er35     Er28    10.981   1_554     S
Er35     Er9    10.981   1_565     S
Er36     V92    9.51   .     S
Er36     V74    9.51   1_565     S
Er36     V88    9.51   .     S
Er36     V106    9.51   1_565     S
Er36     V104    9.51   .     S
Er36     V70    9.51   1_565     S
Er36     Er10    10.981   1_565     S
Er37     V93    9.51   .     S
Er37     V79    9.51   .     S
Er37     V81    9.51   1_655     S
Er37     V111    9.51   .     S
Er37     V97    9.51   1_655     S
Er37     V67    9.51   1_655     S
Er37     Er30    10.981   1_554     S
Er37     Er1    10.981   1_655     S
Er38     V94    9.51   .     S
Er38     V80    9.51   .     S
Er38     V82    9.51   1_655     S
Er38     V112    9.51   .     S
Er38     V98    9.51   1_655     S
Er38     V68    9.51   1_655     S
Er38     Er2    10.981   1_655     S
Er39     V95    9.51   .     S
Er39     V77    9.51   1_565     S
Er39     V83    9.51   1_655     S
Er39     V109    9.51   1_565     S
Er39     V99    9.51   1_655     S
Er39     V65    9.51   1_665     S
Er39     Er32    10.981   1_554     S
Er39     Er13    10.981   1_565     S
Er39     Er3    10.981   1_655     S
Er40     V96    9.51   .     S
Er40     V78    9.51   1_565     S
Er40     V84    9.51   1_655     S
Er40     V110    9.51   1_565     S
Er40     V100    9.51   1_655     S
Er40     V66    9.51   1_665     S
Er40     Er14    10.981   1_565     S
Er40     Er4    10.981   1_655     S
Er41     V105    9.51   .     S
Er41     V69    9.51   .     S
Er41     V74    9.51   .     S
Er41     V90    9.51   .     S
Er41     V101    9.51   .     S
Er41     V86    9.51   .     S
Er41     Er27    10.981   1_545     S
Er41     Er53    10.981   .     S
Er41     Er49    10.981   .     S
Er42     V106    9.51   .     S
Er42     V70    9.51   .     S
Er42     V73    9.51   1_556     S
Er42     V89    9.51   1_556     S
Er42     V102    9.51   .     S
Er42     V85    9.51   1_556     S
Er42     Er9    10.981   1_556     S
Er42     Er28    10.981   1_545     S
Er42     Er54    10.981   .     S
Er42     Er50    10.981   .     S
Er43     V107    9.51   .     S
Er43     V71    9.51   .     S
Er43     V76    9.51   .     S
Er43     V92    9.51   .     S
Er43     V103    9.51   .     S
Er43     V88    9.51   .     S
Er43     Er55    10.981   .     S
Er43     Er51    10.981   .     S
Er44     V108    9.51   .     S
Er44     V72    9.51   .     S
Er44     V75    9.51   1_556     S
Er44     V91    9.51   1_556     S
Er44     V104    9.51   .     S
Er44     V87    9.51   1_556     S
Er44     Er11    10.981   1_556     S
Er44     Er56    10.981   .     S
Er44     Er52    10.981   .     S
Er45     V109    9.51   .     S
Er45     V65    9.51   1_655     S
Er45     V78    9.51   .     S
Er45     V94    9.51   .     S
Er45     V97    9.51   1_655     S
Er45     V82    9.51   1_655     S
Er45     Er31    10.981   1_545     S
Er45     Er49    10.981   1_655     S
Er45     Er53    10.981   .     S
Er46     V110    9.51   .     S
Er46     V66    9.51   1_655     S
Er46     V77    9.51   1_556     S
Er46     V93    9.51   1_556     S
Er46     V98    9.51   1_655     S
Er46     V81    9.51   1_656     S
Er46     Er13    10.981   1_556     S
Er46     Er32    10.981   1_545     S
Er46     Er50    10.981   1_655     S
Er46     Er54    10.981   .     S
Er47     V111    9.51   .     S
Er47     V67    9.51   1_655     S
Er47     V80    9.51   .     S
Er47     V96    9.51   .     S
Er47     V99    9.51   1_655     S
Er47     V84    9.51   1_655     S
Er47     Er51    10.981   1_655     S
Er47     Er55    10.981   .     S
Er48     V112    9.51   .     S
Er48     V68    9.51   1_655     S
Er48     V79    9.51   1_556     S
Er48     V95    9.51   1_556     S
Er48     V100    9.51   1_655     S
Er48     V83    9.51   1_656     S
Er48     Er15    10.981   1_556     S
Er48     Er52    10.981   1_655     S
Er48     Er56    10.981   .     S
Er49     V97    9.51   .     S
Er49     V105    9.51   .     S
Er49     V90    9.51   .     S
Er49     V65    9.51   .     S
Er49     V82    9.51   .     S
Er49     V74    9.51   .     S
Er49     Er19    10.981   1_545     S
Er49     Er45    10.981   1_455     S
Er49     Er58    10.981   .     S
Er49     Er57    10.981   .     S
Er50     V98    9.51   .     S
Er50     V106    9.51   .     S
Er50     V89    9.51   1_556     S
Er50     V66    9.51   .     S
Er50     V81    9.51   1_556     S
Er50     V73    9.51   1_556     S
Er50     Er20    10.981   1_545     S
Er50     Er46    10.981   1_455     S
Er50     Er57    10.981   1_556     S
Er50     Er58    10.981   .     S
Er51     V99    9.51   .     S
Er51     V107    9.51   .     S
Er51     V92    9.51   .     S
Er51     V67    9.51   .     S
Er51     V84    9.51   .     S
Er51     V76    9.51   .     S
Er51     Er47    10.981   1_455     S
Er51     Er60    10.981   .     S
Er51     Er59    10.981   .     S
Er52     V100    9.51   .     S
Er52     V108    9.51   .     S
Er52     V91    9.51   1_556     S
Er52     V68    9.51   .     S
Er52     V83    9.51   1_556     S
Er52     V75    9.51   1_556     S
Er52     Er48    10.981   1_455     S
Er52     Er59    10.981   1_556     S
Er52     Er60    10.981   .     S
Er53     V101    9.51   .     S
Er53     V109    9.51   .     S
Er53     V94    9.51   .     S
Er53     V69    9.51   .     S
Er53     V86    9.51   .     S
Er53     V78    9.51   .     S
Er53     Er23    10.981   1_545     S
Er53     Er62    10.981   .     S
Er53     Er61    10.981   .     S
Er54     V102    9.51   .     S
Er54     V110    9.51   .     S
Er54     V93    9.51   1_556     S
Er54     V70    9.51   .     S
Er54     V85    9.51   1_556     S
Er54     V77    9.51   1_556     S
Er54     Er24    10.981   1_545     S
Er54     Er61    10.981   1_556     S
Er54     Er62    10.981   .     S
Er55     V103    9.51   .     S
Er55     V111    9.51   .     S
Er55     V96    9.51   .     S
Er55     V71    9.51   .     S
Er55     V88    9.51   .     S
Er55     V80    9.51   .     S
Er55     Er64    10.981   .     S
Er55     Er63    10.981   .     S
Er56     V104    9.51   .     S
Er56     V112    9.51   .     S
Er56     V95    9.51   1_556     S
Er56     V72    9.51   .     S
Er56     V87    9.51   1_556     S
Er56     V79    9.51   1_556     S
Er56     Er63    10.981   1_556     S
Er56     Er64    10.981   .     S
Er57     V73    9.51   .     S
Er57     V81    9.51   .     S
Er57     V89    9.51   .     S
Er57     V105    9.51   .     S
Er57     V97    9.51   .     S
Er57     V65    9.51   .     S
Er57     Er50    10.981   1_554     S
Er57     Er13    10.981   1_455     S
Er57     Er3    10.981   1_545     S
Er58     V74    9.51   .     S
Er58     V82    9.51   .     S
Er58     V90    9.51   .     S
Er58     V106    9.51   .     S
Er58     V98    9.51   .     S
Er58     V66    9.51   .     S
Er58     Er14    10.981   1_455     S
Er58     Er4    10.981   1_545     S
Er59     V75    9.51   .     S
Er59     V83    9.51   .     S
Er59     V91    9.51   .     S
Er59     V107    9.51   .     S
Er59     V99    9.51   .     S
Er59     V67    9.51   .     S
Er59     Er52    10.981   1_554     S
Er59     Er15    10.981   1_455     S
Er60     V76    9.51   .     S
Er60     V84    9.51   .     S
Er60     V92    9.51   .     S
Er60     V108    9.51   .     S
Er60     V100    9.51   .     S
Er60     V68    9.51   .     S
Er60     Er16    10.981   1_455     S
Er61     V77    9.51   .     S
Er61     V85    9.51   .     S
Er61     V93    9.51   .     S
Er61     V109    9.51   .     S
Er61     V101    9.51   .     S
Er61     V69    9.51   .     S
Er61     Er54    10.981   1_554     S
Er61     Er7    10.981   1_545     S
Er62     V78    9.51   .     S
Er62     V86    9.51   .     S
Er62     V94    9.51   .     S
Er62     V110    9.51   .     S
Er62     V102    9.51   .     S
Er62     V70    9.51   .     S
Er62     Er8    10.981   1_545     S
Er63     V79    9.51   .     S
Er63     V87    9.51   .     S
Er63     V95    9.51   .     S
Er63     V111    9.51   .     S
Er63     V103    9.51   .     S
Er63     V71    9.51   .     S
Er63     Er56    10.981   1_554     S
Er64     V80    9.51   .     S
Er64     V88    9.51   .     S
Er64     V96    9.51   .     S
Er64     V112    9.51   .     S
Er64     V104    9.51   .     S
Er64     V72    9.51   .     S
V65     Er19    9.51   1_545     S
V65     Er45    9.51   1_455     S
V65     Er31    9.51   1_445     S
V65     Er13    9.51   1_455     S
V65     Er39    9.51   1_445     S
V65     Er3    9.51   1_545     S
V66     Er20    9.51   1_545     S
V66     Er46    9.51   1_455     S
V66     Er32    9.51   1_445     S
V66     Er14    9.51   1_455     S
V66     Er40    9.51   1_445     S
V66     Er4    9.51   1_545     S
V67     Er47    9.51   1_455     S
V67     Er29    9.51   1_455     S
V67     Er15    9.51   1_455     S
V67     Er37    9.51   1_455     S
V68     Er48    9.51   1_455     S
V68     Er30    9.51   1_455     S
V68     Er16    9.51   1_455     S
V68     Er38    9.51   1_455     S
V69     Er23    9.51   1_545     S
V69     Er27    9.51   1_545     S
V69     Er35    9.51   1_545     S
V69     Er7    9.51   1_545     S
V70     Er24    9.51   1_545     S
V70     Er28    9.51   1_545     S
V70     Er36    9.51   1_545     S
V70     Er8    9.51   1_545     S
V73     Er35    9.51   1_545     S
V73     Er42    9.51   1_554     S
V73     Er28    9.51   1_544     S
V73     Er20    9.51   1_544     S
V73     Er50    9.51   1_554     S
V73     Er3    9.51   1_545     S
V74     Er36    9.51   1_545     S
V74     Er27    9.51   1_545     S
V74     Er19    9.51   1_545     S
V74     Er4    9.51   1_545     S
V75     Er44    9.51   1_554     S
V75     Er26    9.51   1_554     S
V75     Er18    9.51   1_554     S
V75     Er52    9.51   1_554     S
V77     Er39    9.51   1_545     S
V77     Er46    9.51   1_554     S
V77     Er32    9.51   1_544     S
V77     Er24    9.51   1_544     S
V77     Er54    9.51   1_554     S
V77     Er7    9.51   1_545     S
V78     Er40    9.51   1_545     S
V78     Er31    9.51   1_545     S
V78     Er23    9.51   1_545     S
V78     Er8    9.51   1_545     S
V79     Er48    9.51   1_554     S
V79     Er30    9.51   1_554     S
V79     Er22    9.51   1_554     S
V79     Er56    9.51   1_554     S
V81     Er30    9.51   1_454     S
V81     Er18    9.51   1_554     S
V81     Er37    9.51   1_455     S
V81     Er13    9.51   1_455     S
V81     Er50    9.51   1_554     S
V81     Er46    9.51   1_454     S
V82     Er29    9.51   1_455     S
V82     Er38    9.51   1_455     S
V82     Er14    9.51   1_455     S
V82     Er45    9.51   1_455     S
V83     Er32    9.51   1_454     S
V83     Er20    9.51   1_554     S
V83     Er39    9.51   1_455     S
V83     Er15    9.51   1_455     S
V83     Er52    9.51   1_554     S
V83     Er48    9.51   1_454     S
V84     Er31    9.51   1_455     S
V84     Er40    9.51   1_455     S
V84     Er16    9.51   1_455     S
V84     Er47    9.51   1_455     S
V85     Er26    9.51   1_554     S
V85     Er22    9.51   1_554     S
V85     Er54    9.51   1_554     S
V85     Er42    9.51   1_554     S
V87     Er28    9.51   1_554     S
V87     Er24    9.51   1_554     S
V87     Er56    9.51   1_554     S
V87     Er44    9.51   1_554     S
V89     Er26    9.51   1_554     S
V89     Er50    9.51   1_554     S
V89     Er18    9.51   1_554     S
V89     Er42    9.51   1_554     S
V91     Er28    9.51   1_554     S
V91     Er52    9.51   1_554     S
V91     Er20    9.51   1_554     S
V91     Er44    9.51   1_554     S
V93     Er30    9.51   1_554     S
V93     Er54    9.51   1_554     S
V93     Er22    9.51   1_554     S
V93     Er46    9.51   1_554     S
V95     Er32    9.51   1_554     S
V95     Er56    9.51   1_554     S
V95     Er24    9.51   1_554     S
V95     Er48    9.51   1_554     S
V97     Er29    9.51   1_455     S
V97     Er37    9.51   1_455     S
V97     Er45    9.51   1_455     S
V97     Er13    9.51   1_455     S
V98     Er30    9.51   1_455     S
V98     Er38    9.51   1_455     S
V98     Er46    9.51   1_455     S
V98     Er14    9.51   1_455     S
V99     Er31    9.51   1_455     S
V99     Er39    9.51   1_455     S
V99     Er47    9.51   1_455     S
V99     Er15    9.51   1_455     S
V100     Er32    9.51   1_455     S
V100     Er40    9.51   1_455     S
V100     Er48    9.51   1_455     S
V100     Er16    9.51   1_455     S
V105     Er27    9.51   1_545     S
V105     Er19    9.51   1_545     S
V105     Er35    9.51   1_545     S
V105     Er3    9.51   1_545     S
V106     Er28    9.51   1_545     S
V106     Er20    9.51   1_545     S
V106     Er36    9.51   1_545     S
V106     Er4    9.51   1_545     S
V109     Er31    9.51   1_545     S
V109     Er23    9.51   1_545     S
V109     Er39    9.51   1_545     S
V109     Er7    9.51   1_545     S
V110     Er32    9.51   1_545     S
V110     Er24    9.51   1_545     S
V110     Er40    9.51   1_545     S
V110     Er8    9.51   1_545     S
