data_xbr
_audit_creation_date              2019-12-31
_audit_creation_method            'Pymatgen'
_symmetry_space_group_name_H-M    'P1'
_symmetry_Int_Tables_number       1
loop_
_symmetry_equiv_pos_as_xyz
  x,y,z
_cell_length_a                    41.3862
_cell_length_b                    41.3862
_cell_length_c                    41.3862
_cell_angle_alpha                 90.0
_cell_angle_beta                 90.0
_cell_angle_gamma                 90.0
loop_
_atom_site_label
_atom_site_type_symbol
_atom_site_fract_x
_atom_site_fract_y
_atom_site_fract_z
Er1     Er     0.4375   0.4375   0.4375
Er2     Er     0.4375   0.4375   0.9375
Er3     Er     0.4375   0.9375   0.4375
Er4     Er     0.4375   0.9375   0.9375
Er5     Er     0.9375   0.4375   0.4375
Er6     Er     0.9375   0.4375   0.9375
Er7     Er     0.9375   0.9375   0.4375
Er8     Er     0.9375   0.9375   0.9375
Er9     Er     0.1875   0.1875   0.4375
Er10     Er     0.1875   0.1875   0.9375
Er11     Er     0.1875   0.6875   0.4375
Er12     Er     0.1875   0.6875   0.9375
Er13     Er     0.6875   0.1875   0.4375
Er14     Er     0.6875   0.1875   0.9375
Er15     Er     0.6875   0.6875   0.4375
Er16     Er     0.6875   0.6875   0.9375
Er17     Er     0.4375   0.1875   0.1875
Er18     Er     0.4375   0.1875   0.6875
Er19     Er     0.4375   0.6875   0.1875
Er20     Er     0.4375   0.6875   0.6875
Er21     Er     0.9375   0.1875   0.1875
Er22     Er     0.9375   0.1875   0.6875
Er23     Er     0.9375   0.6875   0.1875
Er24     Er     0.9375   0.6875   0.6875
Er25     Er     0.1875   0.4375   0.1875
Er26     Er     0.1875   0.4375   0.6875
Er27     Er     0.1875   0.9375   0.1875
Er28     Er     0.1875   0.9375   0.6875
Er29     Er     0.6875   0.4375   0.1875
Er30     Er     0.6875   0.4375   0.6875
Er31     Er     0.6875   0.9375   0.1875
Er32     Er     0.6875   0.9375   0.6875
Er33     Er     0.0625   0.0625   0.0625
Er34     Er     0.0625   0.0625   0.5625
Er35     Er     0.0625   0.5625   0.0625
Er36     Er     0.0625   0.5625   0.5625
Er37     Er     0.5625   0.0625   0.0625
Er38     Er     0.5625   0.0625   0.5625
Er39     Er     0.5625   0.5625   0.0625
Er40     Er     0.5625   0.5625   0.5625
Er41     Er     0.0625   0.3125   0.3125
Er42     Er     0.0625   0.3125   0.8125
Er43     Er     0.0625   0.8125   0.3125
Er44     Er     0.0625   0.8125   0.8125
Er45     Er     0.5625   0.3125   0.3125
Er46     Er     0.5625   0.3125   0.8125
Er47     Er     0.5625   0.8125   0.3125
Er48     Er     0.5625   0.8125   0.8125
Er49     Er     0.3125   0.0625   0.3125
Er50     Er     0.3125   0.0625   0.8125
Er51     Er     0.3125   0.5625   0.3125
Er52     Er     0.3125   0.5625   0.8125
Er53     Er     0.8125   0.0625   0.3125
Er54     Er     0.8125   0.0625   0.8125
Er55     Er     0.8125   0.5625   0.3125
Er56     Er     0.8125   0.5625   0.8125
Er57     Er     0.3125   0.3125   0.0625
Er58     Er     0.3125   0.3125   0.5625
Er59     Er     0.3125   0.8125   0.0625
Er60     Er     0.3125   0.8125   0.5625
Er61     Er     0.8125   0.3125   0.0625
Er62     Er     0.8125   0.3125   0.5625
Er63     Er     0.8125   0.8125   0.0625
Er64     Er     0.8125   0.8125   0.5625
V65     V     0.0625   0.0625   0.3125
V66     V     0.0625   0.0625   0.8125
V67     V     0.0625   0.5625   0.3125
V68     V     0.0625   0.5625   0.8125
V69     V     0.5625   0.0625   0.3125
V70     V     0.5625   0.0625   0.8125
V71     V     0.5625   0.5625   0.3125
V72     V     0.5625   0.5625   0.8125
V73     V     0.4375   0.1875   0.4375
V74     V     0.4375   0.1875   0.9375
V75     V     0.4375   0.6875   0.4375
V76     V     0.4375   0.6875   0.9375
V77     V     0.9375   0.1875   0.4375
V78     V     0.9375   0.1875   0.9375
V79     V     0.9375   0.6875   0.4375
V80     V     0.9375   0.6875   0.9375
V81     V     0.3125   0.0625   0.0625
V82     V     0.3125   0.0625   0.5625
V83     V     0.3125   0.5625   0.0625
V84     V     0.3125   0.5625   0.5625
V85     V     0.8125   0.0625   0.0625
V86     V     0.8125   0.0625   0.5625
V87     V     0.8125   0.5625   0.0625
V88     V     0.8125   0.5625   0.5625
V89     V     0.4375   0.4375   0.1875
V90     V     0.4375   0.4375   0.6875
V91     V     0.4375   0.9375   0.1875
V92     V     0.4375   0.9375   0.6875
V93     V     0.9375   0.4375   0.1875
V94     V     0.9375   0.4375   0.6875
V95     V     0.9375   0.9375   0.1875
V96     V     0.9375   0.9375   0.6875
V97     V     0.0625   0.3125   0.0625
V98     V     0.0625   0.3125   0.5625
V99     V     0.0625   0.8125   0.0625
V100     V     0.0625   0.8125   0.5625
V101     V     0.5625   0.3125   0.0625
V102     V     0.5625   0.3125   0.5625
V103     V     0.5625   0.8125   0.0625
V104     V     0.5625   0.8125   0.5625
V105     V     0.1875   0.4375   0.4375
V106     V     0.1875   0.4375   0.9375
V107     V     0.1875   0.9375   0.4375
V108     V     0.1875   0.9375   0.9375
V109     V     0.6875   0.4375   0.4375
V110     V     0.6875   0.4375   0.9375
V111     V     0.6875   0.9375   0.4375
V112     V     0.6875   0.9375   0.9375
V113     V     0.3125   0.3125   0.3125
V114     V     0.3125   0.3125   0.8125
V115     V     0.3125   0.8125   0.3125
V116     V     0.3125   0.8125   0.8125
V117     V     0.8125   0.3125   0.3125
V118     V     0.8125   0.3125   0.8125
V119     V     0.8125   0.8125   0.3125
V120     V     0.8125   0.8125   0.8125
V121     V     0.1875   0.1875   0.1875
V122     V     0.1875   0.1875   0.6875
V123     V     0.1875   0.6875   0.1875
V124     V     0.1875   0.6875   0.6875
V125     V     0.6875   0.1875   0.1875
V126     V     0.6875   0.1875   0.6875
V127     V     0.6875   0.6875   0.1875
V128     V     0.6875   0.6875   0.6875
loop_
_geom_bond_atom_site_label_1
_geom_bond_atom_site_label_2
_geom_bond_distance
_geom_bond_site_symmetry_2
_ccdc_geom_bond_type
Er1     Er51    8.96   .     S
Er1     Er58    8.96   .     S
Er1     Er45    8.96   .     S
Er1     Er40    8.96   .     S
Er1     V75    10.347   .     S
Er1     V90    10.347   .     S
Er1     V109    10.347   .     S
Er1     V89    10.347   .     S
Er1     V73    10.347   .     S
Er1     V105    10.347   .     S
Er2     Er52    8.96   .     S
Er2     Er57    8.96   1_556     S
Er2     Er46    8.96   .     S
Er2     Er39    8.96   1_556     S
Er2     V76    10.347   .     S
Er2     V89    10.347   1_556     S
Er2     V110    10.347   .     S
Er2     V90    10.347   .     S
Er2     V74    10.347   .     S
Er2     V106    10.347   .     S
Er3     Er49    8.96   1_565     S
Er3     Er60    8.96   .     S
Er3     Er47    8.96   .     S
Er3     Er38    8.96   1_565     S
Er3     V73    10.347   1_565     S
Er3     V92    10.347   .     S
Er3     V111    10.347   .     S
Er3     V91    10.347   .     S
Er3     V75    10.347   .     S
Er3     V107    10.347   .     S
Er4     Er50    8.96   1_565     S
Er4     Er59    8.96   1_556     S
Er4     Er48    8.96   .     S
Er4     Er37    8.96   1_566     S
Er4     V74    10.347   1_565     S
Er4     V91    10.347   1_556     S
Er4     V112    10.347   .     S
Er4     V92    10.347   .     S
Er4     V76    10.347   .     S
Er4     V108    10.347   .     S
Er5     Er55    8.96   .     S
Er5     Er62    8.96   .     S
Er5     Er41    8.96   1_655     S
Er5     Er36    8.96   1_655     S
Er5     V79    10.347   .     S
Er5     V94    10.347   .     S
Er5     V105    10.347   1_655     S
Er5     V93    10.347   .     S
Er5     V77    10.347   .     S
Er5     V109    10.347   .     S
Er6     Er56    8.96   .     S
Er6     Er61    8.96   1_556     S
Er6     Er42    8.96   1_655     S
Er6     Er35    8.96   1_656     S
Er6     V80    10.347   .     S
Er6     V93    10.347   1_556     S
Er6     V106    10.347   1_655     S
Er6     V94    10.347   .     S
Er6     V78    10.347   .     S
Er6     V110    10.347   .     S
Er7     Er53    8.96   1_565     S
Er7     Er64    8.96   .     S
Er7     Er43    8.96   1_655     S
Er7     Er34    8.96   1_665     S
Er7     V77    10.347   1_565     S
Er7     V96    10.347   .     S
Er7     V107    10.347   1_655     S
Er7     V95    10.347   .     S
Er7     V79    10.347   .     S
Er7     V111    10.347   .     S
Er8     Er54    8.96   1_565     S
Er8     Er63    8.96   1_556     S
Er8     Er44    8.96   1_655     S
Er8     Er33    8.96   1_666     S
Er8     V78    10.347   1_565     S
Er8     V95    10.347   1_556     S
Er8     V108    10.347   1_655     S
Er8     V96    10.347   .     S
Er8     V80    10.347   .     S
Er8     V112    10.347   .     S
Er9     Er49    8.96   .     S
Er9     Er41    8.96   .     S
Er9     Er34    8.96   .     S
Er9     Er58    8.96   .     S
Er9     V73    10.347   .     S
Er9     V107    10.347   1_545     S
Er9     V77    10.347   1_455     S
Er9     V105    10.347   .     S
Er9     V122    10.347   .     S
Er9     V121    10.347   .     S
Er10     Er50    8.96   .     S
Er10     Er42    8.96   .     S
Er10     Er33    8.96   1_556     S
Er10     Er57    8.96   1_556     S
Er10     V74    10.347   .     S
Er10     V108    10.347   1_545     S
Er10     V78    10.347   1_455     S
Er10     V106    10.347   .     S
Er10     V121    10.347   1_556     S
Er10     V122    10.347   .     S
Er11     Er51    8.96   .     S
Er11     Er43    8.96   .     S
Er11     Er36    8.96   .     S
Er11     Er60    8.96   .     S
Er11     V75    10.347   .     S
Er11     V105    10.347   .     S
Er11     V79    10.347   1_455     S
Er11     V107    10.347   .     S
Er11     V124    10.347   .     S
Er11     V123    10.347   .     S
Er12     Er52    8.96   .     S
Er12     Er44    8.96   .     S
Er12     Er35    8.96   1_556     S
Er12     Er59    8.96   1_556     S
Er12     V76    10.347   .     S
Er12     V106    10.347   .     S
Er12     V80    10.347   1_455     S
Er12     V108    10.347   .     S
Er12     V123    10.347   1_556     S
Er12     V124    10.347   .     S
Er13     Er53    8.96   .     S
Er13     Er45    8.96   .     S
Er13     Er38    8.96   .     S
Er13     Er62    8.96   .     S
Er13     V77    10.347   .     S
Er13     V111    10.347   1_545     S
Er13     V73    10.347   .     S
Er13     V109    10.347   .     S
Er13     V126    10.347   .     S
Er13     V125    10.347   .     S
Er14     Er54    8.96   .     S
Er14     Er46    8.96   .     S
Er14     Er37    8.96   1_556     S
Er14     Er61    8.96   1_556     S
Er14     V78    10.347   .     S
Er14     V112    10.347   1_545     S
Er14     V74    10.347   .     S
Er14     V110    10.347   .     S
Er14     V125    10.347   1_556     S
Er14     V126    10.347   .     S
Er15     Er55    8.96   .     S
Er15     Er47    8.96   .     S
Er15     Er40    8.96   .     S
Er15     Er64    8.96   .     S
Er15     V79    10.347   .     S
Er15     V109    10.347   .     S
Er15     V75    10.347   .     S
Er15     V111    10.347   .     S
Er15     V128    10.347   .     S
Er15     V127    10.347   .     S
Er16     Er56    8.96   .     S
Er16     Er48    8.96   .     S
Er16     Er39    8.96   1_556     S
Er16     Er63    8.96   1_556     S
Er16     V80    10.347   .     S
Er16     V110    10.347   .     S
Er16     V76    10.347   .     S
Er16     V112    10.347   .     S
Er16     V127    10.347   1_556     S
Er16     V128    10.347   .     S
Er17     Er49    8.96   .     S
Er17     Er57    8.96   .     S
Er17     Er37    8.96   .     S
Er17     Er45    8.96   .     S
Er17     V74    10.347   1_554     S
Er17     V73    10.347   .     S
Er17     V91    10.347   1_545     S
Er17     V89    10.347   .     S
Er17     V125    10.347   .     S
Er17     V121    10.347   .     S
Er18     Er50    8.96   .     S
Er18     Er58    8.96   .     S
Er18     Er38    8.96   .     S
Er18     Er46    8.96   .     S
Er18     V73    10.347   .     S
Er18     V74    10.347   .     S
Er18     V92    10.347   1_545     S
Er18     V90    10.347   .     S
Er18     V126    10.347   .     S
Er18     V122    10.347   .     S
Er19     Er51    8.96   .     S
Er19     Er59    8.96   .     S
Er19     Er39    8.96   .     S
Er19     Er47    8.96   .     S
Er19     V76    10.347   1_554     S
Er19     V75    10.347   .     S
Er19     V89    10.347   .     S
Er19     V91    10.347   .     S
Er19     V127    10.347   .     S
Er19     V123    10.347   .     S
Er20     Er52    8.96   .     S
Er20     Er60    8.96   .     S
Er20     Er40    8.96   .     S
Er20     Er48    8.96   .     S
Er20     V75    10.347   .     S
Er20     V76    10.347   .     S
Er20     V90    10.347   .     S
Er20     V92    10.347   .     S
Er20     V128    10.347   .     S
Er20     V124    10.347   .     S
Er21     Er53    8.96   .     S
Er21     Er61    8.96   .     S
Er21     Er33    8.96   1_655     S
Er21     Er41    8.96   1_655     S
Er21     V78    10.347   1_554     S
Er21     V77    10.347   .     S
Er21     V95    10.347   1_545     S
Er21     V93    10.347   .     S
Er21     V121    10.347   1_655     S
Er21     V125    10.347   .     S
Er22     Er54    8.96   .     S
Er22     Er62    8.96   .     S
Er22     Er34    8.96   1_655     S
Er22     Er42    8.96   1_655     S
Er22     V77    10.347   .     S
Er22     V78    10.347   .     S
Er22     V96    10.347   1_545     S
Er22     V94    10.347   .     S
Er22     V122    10.347   1_655     S
Er22     V126    10.347   .     S
Er23     Er55    8.96   .     S
Er23     Er63    8.96   .     S
Er23     Er35    8.96   1_655     S
Er23     Er43    8.96   1_655     S
Er23     V80    10.347   1_554     S
Er23     V79    10.347   .     S
Er23     V93    10.347   .     S
Er23     V95    10.347   .     S
Er23     V123    10.347   1_655     S
Er23     V127    10.347   .     S
Er24     Er56    8.96   .     S
Er24     Er64    8.96   .     S
Er24     Er36    8.96   1_655     S
Er24     Er44    8.96   1_655     S
Er24     V79    10.347   .     S
Er24     V80    10.347   .     S
Er24     V94    10.347   .     S
Er24     V96    10.347   .     S
Er24     V124    10.347   1_655     S
Er24     V128    10.347   .     S
Er25     Er57    8.96   .     S
Er25     Er41    8.96   .     S
Er25     Er35    8.96   .     S
Er25     Er51    8.96   .     S
Er25     V93    10.347   1_455     S
Er25     V105    10.347   .     S
Er25     V106    10.347   1_554     S
Er25     V89    10.347   .     S
Er25     V121    10.347   .     S
Er25     V123    10.347   .     S
Er26     Er58    8.96   .     S
Er26     Er42    8.96   .     S
Er26     Er36    8.96   .     S
Er26     Er52    8.96   .     S
Er26     V94    10.347   1_455     S
Er26     V106    10.347   .     S
Er26     V105    10.347   .     S
Er26     V90    10.347   .     S
Er26     V122    10.347   .     S
Er26     V124    10.347   .     S
Er27     Er59    8.96   .     S
Er27     Er43    8.96   .     S
Er27     Er33    8.96   1_565     S
Er27     Er49    8.96   1_565     S
Er27     V95    10.347   1_455     S
Er27     V107    10.347   .     S
Er27     V108    10.347   1_554     S
Er27     V91    10.347   .     S
Er27     V123    10.347   .     S
Er27     V121    10.347   1_565     S
Er28     Er60    8.96   .     S
Er28     Er44    8.96   .     S
Er28     Er34    8.96   1_565     S
Er28     Er50    8.96   1_565     S
Er28     V96    10.347   1_455     S
Er28     V108    10.347   .     S
Er28     V107    10.347   .     S
Er28     V92    10.347   .     S
Er28     V124    10.347   .     S
Er28     V122    10.347   1_565     S
Er29     Er61    8.96   .     S
Er29     Er45    8.96   .     S
Er29     Er39    8.96   .     S
Er29     Er55    8.96   .     S
Er29     V89    10.347   .     S
Er29     V109    10.347   .     S
Er29     V110    10.347   1_554     S
Er29     V93    10.347   .     S
Er29     V125    10.347   .     S
Er29     V127    10.347   .     S
Er30     Er62    8.96   .     S
Er30     Er46    8.96   .     S
Er30     Er40    8.96   .     S
Er30     Er56    8.96   .     S
Er30     V90    10.347   .     S
Er30     V110    10.347   .     S
Er30     V109    10.347   .     S
Er30     V94    10.347   .     S
Er30     V126    10.347   .     S
Er30     V128    10.347   .     S
Er31     Er63    8.96   .     S
Er31     Er47    8.96   .     S
Er31     Er37    8.96   1_565     S
Er31     Er53    8.96   1_565     S
Er31     V91    10.347   .     S
Er31     V111    10.347   .     S
Er31     V112    10.347   1_554     S
Er31     V95    10.347   .     S
Er31     V127    10.347   .     S
Er31     V125    10.347   1_565     S
Er32     Er64    8.96   .     S
Er32     Er48    8.96   .     S
Er32     Er38    8.96   1_565     S
Er32     Er54    8.96   1_565     S
Er32     V92    10.347   .     S
Er32     V112    10.347   .     S
Er32     V111    10.347   .     S
Er32     V96    10.347   .     S
Er32     V128    10.347   .     S
Er32     V126    10.347   1_565     S
Er33     Er10    8.96   1_554     S
Er33     Er27    8.96   1_545     S
Er33     Er21    8.96   1_455     S
Er33     Er8    8.96   1_444     S
Er33     V65    10.347   .     S
Er33     V97    10.347   .     S
Er33     V81    10.347   .     S
Er33     V66    10.347   1_554     S
Er33     V85    10.347   1_455     S
Er33     V99    10.347   1_545     S
Er34     Er28    8.96   1_545     S
Er34     Er22    8.96   1_455     S
Er34     Er7    8.96   1_445     S
Er34     V66    10.347   .     S
Er34     V98    10.347   .     S
Er34     V82    10.347   .     S
Er34     V65    10.347   .     S
Er34     V86    10.347   1_455     S
Er34     V100    10.347   1_545     S
Er35     Er12    8.96   1_554     S
Er35     Er23    8.96   1_455     S
Er35     Er6    8.96   1_454     S
Er35     V67    10.347   .     S
Er35     V99    10.347   .     S
Er35     V83    10.347   .     S
Er35     V68    10.347   1_554     S
Er35     V87    10.347   1_455     S
Er35     V97    10.347   .     S
Er36     Er24    8.96   1_455     S
Er36     Er5    8.96   1_455     S
Er36     V68    10.347   .     S
Er36     V100    10.347   .     S
Er36     V84    10.347   .     S
Er36     V67    10.347   .     S
Er36     V88    10.347   1_455     S
Er36     V98    10.347   .     S
Er37     Er14    8.96   1_554     S
Er37     Er31    8.96   1_545     S
Er37     Er4    8.96   1_544     S
Er37     V69    10.347   .     S
Er37     V101    10.347   .     S
Er37     V85    10.347   .     S
Er37     V70    10.347   1_554     S
Er37     V81    10.347   .     S
Er37     V103    10.347   1_545     S
Er38     Er32    8.96   1_545     S
Er38     Er3    8.96   1_545     S
Er38     V70    10.347   .     S
Er38     V102    10.347   .     S
Er38     V86    10.347   .     S
Er38     V69    10.347   .     S
Er38     V82    10.347   .     S
Er38     V104    10.347   1_545     S
Er39     Er16    8.96   1_554     S
Er39     Er2    8.96   1_554     S
Er39     V71    10.347   .     S
Er39     V103    10.347   .     S
Er39     V87    10.347   .     S
Er39     V72    10.347   1_554     S
Er39     V83    10.347   .     S
Er39     V101    10.347   .     S
Er40     V72    10.347   .     S
Er40     V104    10.347   .     S
Er40     V88    10.347   .     S
Er40     V71    10.347   .     S
Er40     V84    10.347   .     S
Er40     V102    10.347   .     S
Er41     Er5    8.96   1_455     S
Er41     Er21    8.96   1_455     S
Er41     V98    10.347   .     S
Er41     V67    10.347   .     S
Er41     V65    10.347   .     S
Er41     V97    10.347   .     S
Er41     V113    10.347   .     S
Er41     V117    10.347   1_455     S
Er42     Er6    8.96   1_455     S
Er42     Er22    8.96   1_455     S
Er42     V97    10.347   1_556     S
Er42     V68    10.347   .     S
Er42     V66    10.347   .     S
Er42     V98    10.347   .     S
Er42     V114    10.347   .     S
Er42     V118    10.347   1_455     S
Er43     Er7    8.96   1_455     S
Er43     Er23    8.96   1_455     S
Er43     V100    10.347   .     S
Er43     V65    10.347   1_565     S
Er43     V67    10.347   .     S
Er43     V99    10.347   .     S
Er43     V115    10.347   .     S
Er43     V119    10.347   1_455     S
Er44     Er8    8.96   1_455     S
Er44     Er24    8.96   1_455     S
Er44     V99    10.347   1_556     S
Er44     V66    10.347   1_565     S
Er44     V68    10.347   .     S
Er44     V100    10.347   .     S
Er44     V116    10.347   .     S
Er44     V120    10.347   1_455     S
Er45     V102    10.347   .     S
Er45     V71    10.347   .     S
Er45     V69    10.347   .     S
Er45     V101    10.347   .     S
Er45     V117    10.347   .     S
Er45     V113    10.347   .     S
Er46     V101    10.347   1_556     S
Er46     V72    10.347   .     S
Er46     V70    10.347   .     S
Er46     V102    10.347   .     S
Er46     V118    10.347   .     S
Er46     V114    10.347   .     S
Er47     V104    10.347   .     S
Er47     V69    10.347   1_565     S
Er47     V71    10.347   .     S
Er47     V103    10.347   .     S
Er47     V119    10.347   .     S
Er47     V115    10.347   .     S
Er48     V103    10.347   1_556     S
Er48     V70    10.347   1_565     S
Er48     V72    10.347   .     S
Er48     V104    10.347   .     S
Er48     V120    10.347   .     S
Er48     V116    10.347   .     S
Er49     Er3    8.96   1_545     S
Er49     Er27    8.96   1_545     S
Er49     V82    10.347   .     S
Er49     V69    10.347   .     S
Er49     V81    10.347   .     S
Er49     V113    10.347   .     S
Er49     V65    10.347   .     S
Er49     V115    10.347   1_545     S
Er50     Er4    8.96   1_545     S
Er50     Er28    8.96   1_545     S
Er50     V81    10.347   1_556     S
Er50     V70    10.347   .     S
Er50     V82    10.347   .     S
Er50     V114    10.347   .     S
Er50     V66    10.347   .     S
Er50     V116    10.347   1_545     S
Er51     V84    10.347   .     S
Er51     V71    10.347   .     S
Er51     V83    10.347   .     S
Er51     V115    10.347   .     S
Er51     V67    10.347   .     S
Er51     V113    10.347   .     S
Er52     V83    10.347   1_556     S
Er52     V72    10.347   .     S
Er52     V84    10.347   .     S
Er52     V116    10.347   .     S
Er52     V68    10.347   .     S
Er52     V114    10.347   .     S
Er53     Er7    8.96   1_545     S
Er53     Er31    8.96   1_545     S
Er53     V86    10.347   .     S
Er53     V65    10.347   1_655     S
Er53     V85    10.347   .     S
Er53     V117    10.347   .     S
Er53     V69    10.347   .     S
Er53     V119    10.347   1_545     S
Er54     Er8    8.96   1_545     S
Er54     Er32    8.96   1_545     S
Er54     V85    10.347   1_556     S
Er54     V66    10.347   1_655     S
Er54     V86    10.347   .     S
Er54     V118    10.347   .     S
Er54     V70    10.347   .     S
Er54     V120    10.347   1_545     S
Er55     V88    10.347   .     S
Er55     V67    10.347   1_655     S
Er55     V87    10.347   .     S
Er55     V119    10.347   .     S
Er55     V71    10.347   .     S
Er55     V117    10.347   .     S
Er56     V87    10.347   1_556     S
Er56     V68    10.347   1_655     S
Er56     V88    10.347   .     S
Er56     V120    10.347   .     S
Er56     V72    10.347   .     S
Er56     V118    10.347   .     S
Er57     Er2    8.96   1_554     S
Er57     Er10    8.96   1_554     S
Er57     V83    10.347   .     S
Er57     V101    10.347   .     S
Er57     V97    10.347   .     S
Er57     V113    10.347   .     S
Er57     V81    10.347   .     S
Er57     V114    10.347   1_554     S
Er58     V84    10.347   .     S
Er58     V102    10.347   .     S
Er58     V98    10.347   .     S
Er58     V114    10.347   .     S
Er58     V82    10.347   .     S
Er58     V113    10.347   .     S
Er59     Er4    8.96   1_554     S
Er59     Er12    8.96   1_554     S
Er59     V81    10.347   1_565     S
Er59     V103    10.347   .     S
Er59     V99    10.347   .     S
Er59     V115    10.347   .     S
Er59     V83    10.347   .     S
Er59     V116    10.347   1_554     S
Er60     V82    10.347   1_565     S
Er60     V104    10.347   .     S
Er60     V100    10.347   .     S
Er60     V116    10.347   .     S
Er60     V84    10.347   .     S
Er60     V115    10.347   .     S
Er61     Er6    8.96   1_554     S
Er61     Er14    8.96   1_554     S
Er61     V87    10.347   .     S
Er61     V97    10.347   1_655     S
Er61     V101    10.347   .     S
Er61     V117    10.347   .     S
Er61     V85    10.347   .     S
Er61     V118    10.347   1_554     S
Er62     V88    10.347   .     S
Er62     V98    10.347   1_655     S
Er62     V102    10.347   .     S
Er62     V118    10.347   .     S
Er62     V86    10.347   .     S
Er62     V117    10.347   .     S
Er63     Er8    8.96   1_554     S
Er63     Er16    8.96   1_554     S
Er63     V85    10.347   1_565     S
Er63     V99    10.347   1_655     S
Er63     V103    10.347   .     S
Er63     V119    10.347   .     S
Er63     V87    10.347   .     S
Er63     V120    10.347   1_554     S
Er64     V86    10.347   1_565     S
Er64     V100    10.347   1_655     S
Er64     V104    10.347   .     S
Er64     V120    10.347   .     S
Er64     V88    10.347   .     S
Er64     V119    10.347   .     S
V65     Er53    10.347   1_455     S
V65     Er43    10.347   1_545     S
V66     Er54    10.347   1_455     S
V66     Er44    10.347   1_545     S
V66     Er33    10.347   1_556     S
V67     Er55    10.347   1_455     S
V68     Er56    10.347   1_455     S
V68     Er35    10.347   1_556     S
V69     Er47    10.347   1_545     S
V70     Er48    10.347   1_545     S
V70     Er37    10.347   1_556     S
V72     Er39    10.347   1_556     S
V73     Er3    10.347   1_545     S
V74     Er4    10.347   1_545     S
V74     Er17    10.347   1_556     S
V76     Er19    10.347   1_556     S
V77     Er7    10.347   1_545     S
V77     Er9    10.347   1_655     S
V78     Er8    10.347   1_545     S
V78     Er21    10.347   1_556     S
V78     Er10    10.347   1_655     S
V79     Er11    10.347   1_655     S
V80     Er23    10.347   1_556     S
V80     Er12    10.347   1_655     S
V81     Er50    10.347   1_554     S
V81     Er59    10.347   1_545     S
V82     Er60    10.347   1_545     S
V83     Er52    10.347   1_554     S
V85     Er54    10.347   1_554     S
V85     Er63    10.347   1_545     S
V85     Er33    10.347   1_655     S
V86     Er64    10.347   1_545     S
V86     Er34    10.347   1_655     S
V87     Er56    10.347   1_554     S
V87     Er35    10.347   1_655     S
V88     Er36    10.347   1_655     S
V89     Er2    10.347   1_554     S
V91     Er4    10.347   1_554     S
V91     Er17    10.347   1_565     S
V92     Er18    10.347   1_565     S
V93     Er6    10.347   1_554     S
V93     Er25    10.347   1_655     S
V94     Er26    10.347   1_655     S
V95     Er8    10.347   1_554     S
V95     Er21    10.347   1_565     S
V95     Er27    10.347   1_655     S
V96     Er22    10.347   1_565     S
V96     Er28    10.347   1_655     S
V97     Er42    10.347   1_554     S
V97     Er61    10.347   1_455     S
V98     Er62    10.347   1_455     S
V99     Er44    10.347   1_554     S
V99     Er63    10.347   1_455     S
V99     Er33    10.347   1_565     S
V100     Er64    10.347   1_455     S
V100     Er34    10.347   1_565     S
V101     Er46    10.347   1_554     S
V103     Er48    10.347   1_554     S
V103     Er37    10.347   1_565     S
V104     Er38    10.347   1_565     S
V105     Er5    10.347   1_455     S
V106     Er6    10.347   1_455     S
V106     Er25    10.347   1_556     S
V107     Er7    10.347   1_455     S
V107     Er9    10.347   1_565     S
V108     Er8    10.347   1_455     S
V108     Er27    10.347   1_556     S
V108     Er10    10.347   1_565     S
V110     Er29    10.347   1_556     S
V111     Er13    10.347   1_565     S
V112     Er31    10.347   1_556     S
V112     Er14    10.347   1_565     S
V114     Er57    10.347   1_556     S
V115     Er49    10.347   1_565     S
V116     Er59    10.347   1_556     S
V116     Er50    10.347   1_565     S
V117     Er41    10.347   1_655     S
V118     Er61    10.347   1_556     S
V118     Er42    10.347   1_655     S
V119     Er43    10.347   1_655     S
V119     Er53    10.347   1_565     S
V120     Er63    10.347   1_556     S
V120     Er44    10.347   1_655     S
V120     Er54    10.347   1_565     S
V121     Er21    10.347   1_455     S
V121     Er10    10.347   1_554     S
V121     Er27    10.347   1_545     S
V122     Er22    10.347   1_455     S
V122     Er28    10.347   1_545     S
V123     Er23    10.347   1_455     S
V123     Er12    10.347   1_554     S
V124     Er24    10.347   1_455     S
V125     Er14    10.347   1_554     S
V125     Er31    10.347   1_545     S
V126     Er32    10.347   1_545     S
V127     Er16    10.347   1_554     S
