data_xij
_audit_creation_date              2019-12-31
_audit_creation_method            'Pymatgen'
_symmetry_space_group_name_H-M    'P1'
_symmetry_Int_Tables_number       1
loop_
_symmetry_equiv_pos_as_xyz
  x,y,z
_cell_length_a                    45.0868
_cell_length_b                    45.0868
_cell_length_c                    45.0868
_cell_angle_alpha                 90.0
_cell_angle_beta                 90.0
_cell_angle_gamma                 90.0
loop_
_atom_site_label
_atom_site_type_symbol
_atom_site_fract_x
_atom_site_fract_y
_atom_site_fract_z
V1     V     0.25   0.25   0.25
V2     V     0.25   0.25   0.75
V3     V     0.25   0.75   0.25
V4     V     0.25   0.75   0.75
V5     V     0.75   0.25   0.25
V6     V     0.75   0.25   0.75
V7     V     0.75   0.75   0.25
V8     V     0.75   0.75   0.75
Er9     Er     0.0   0.25   0.25
Er10     Er     0.0   0.25   0.75
Er11     Er     0.0   0.75   0.25
Er12     Er     0.0   0.75   0.75
Er13     Er     0.5   0.25   0.25
Er14     Er     0.5   0.25   0.75
Er15     Er     0.5   0.75   0.25
Er16     Er     0.5   0.75   0.75
Er17     Er     0.25   0.0   0.25
Er18     Er     0.25   0.0   0.75
Er19     Er     0.25   0.5   0.25
Er20     Er     0.25   0.5   0.75
Er21     Er     0.75   0.0   0.25
Er22     Er     0.75   0.0   0.75
Er23     Er     0.75   0.5   0.25
Er24     Er     0.75   0.5   0.75
Er25     Er     0.25   0.25   0.0
Er26     Er     0.25   0.25   0.5
Er27     Er     0.25   0.75   0.0
Er28     Er     0.25   0.75   0.5
Er29     Er     0.75   0.25   0.0
Er30     Er     0.75   0.25   0.5
Er31     Er     0.75   0.75   0.0
Er32     Er     0.75   0.75   0.5
Er33     Er     0.0   0.25   0.0
Er34     Er     0.0   0.25   0.5
Er35     Er     0.0   0.75   0.0
Er36     Er     0.0   0.75   0.5
Er37     Er     0.5   0.25   0.0
Er38     Er     0.5   0.25   0.5
Er39     Er     0.5   0.75   0.0
Er40     Er     0.5   0.75   0.5
Er41     Er     0.25   0.0   0.0
Er42     Er     0.25   0.0   0.5
Er43     Er     0.25   0.5   0.0
Er44     Er     0.25   0.5   0.5
Er45     Er     0.75   0.0   0.0
Er46     Er     0.75   0.0   0.5
Er47     Er     0.75   0.5   0.0
Er48     Er     0.75   0.5   0.5
V49     V     0.0   0.0   0.0
V50     V     0.0   0.0   0.5
V51     V     0.0   0.5   0.0
V52     V     0.0   0.5   0.5
V53     V     0.5   0.0   0.0
V54     V     0.5   0.0   0.5
V55     V     0.5   0.5   0.0
V56     V     0.5   0.5   0.5
Ti57     Ti     0.375   0.375   0.125
Ti58     Ti     0.375   0.375   0.625
Ti59     Ti     0.375   0.875   0.125
Ti60     Ti     0.375   0.875   0.625
Ti61     Ti     0.875   0.375   0.125
Ti62     Ti     0.875   0.375   0.625
Ti63     Ti     0.875   0.875   0.125
Ti64     Ti     0.875   0.875   0.625
Ti65     Ti     0.125   0.375   0.375
Ti66     Ti     0.125   0.375   0.875
Ti67     Ti     0.125   0.875   0.375
Ti68     Ti     0.125   0.875   0.875
Ti69     Ti     0.625   0.375   0.375
Ti70     Ti     0.625   0.375   0.875
Ti71     Ti     0.625   0.875   0.375
Ti72     Ti     0.625   0.875   0.875
Ti73     Ti     0.375   0.125   0.375
Ti74     Ti     0.375   0.125   0.875
Ti75     Ti     0.375   0.625   0.375
Ti76     Ti     0.375   0.625   0.875
Ti77     Ti     0.875   0.125   0.375
Ti78     Ti     0.875   0.125   0.875
Ti79     Ti     0.875   0.625   0.375
Ti80     Ti     0.875   0.625   0.875
Ti81     Ti     0.375   0.375   0.375
Ti82     Ti     0.375   0.375   0.875
Ti83     Ti     0.375   0.875   0.375
Ti84     Ti     0.375   0.875   0.875
Ti85     Ti     0.875   0.375   0.375
Ti86     Ti     0.875   0.375   0.875
Ti87     Ti     0.875   0.875   0.375
Ti88     Ti     0.875   0.875   0.875
Er89     Er     0.0   0.0   0.25
Er90     Er     0.0   0.0   0.75
Er91     Er     0.0   0.5   0.25
Er92     Er     0.0   0.5   0.75
Er93     Er     0.5   0.0   0.25
Er94     Er     0.5   0.0   0.75
Er95     Er     0.5   0.5   0.25
Er96     Er     0.5   0.5   0.75
Ti97     Ti     0.375   0.125   0.125
Ti98     Ti     0.375   0.125   0.625
Ti99     Ti     0.375   0.625   0.125
Ti100     Ti     0.375   0.625   0.625
Ti101     Ti     0.875   0.125   0.125
Ti102     Ti     0.875   0.125   0.625
Ti103     Ti     0.875   0.625   0.125
Ti104     Ti     0.875   0.625   0.625
Ti105     Ti     0.125   0.375   0.125
Ti106     Ti     0.125   0.375   0.625
Ti107     Ti     0.125   0.875   0.125
Ti108     Ti     0.125   0.875   0.625
Ti109     Ti     0.625   0.375   0.125
Ti110     Ti     0.625   0.375   0.625
Ti111     Ti     0.625   0.875   0.125
Ti112     Ti     0.625   0.875   0.625
Ti113     Ti     0.125   0.125   0.375
Ti114     Ti     0.125   0.125   0.875
Ti115     Ti     0.125   0.625   0.375
Ti116     Ti     0.125   0.625   0.875
Ti117     Ti     0.625   0.125   0.375
Ti118     Ti     0.625   0.125   0.875
Ti119     Ti     0.625   0.625   0.375
Ti120     Ti     0.625   0.625   0.875
Ti121     Ti     0.125   0.125   0.125
Ti122     Ti     0.125   0.125   0.625
Ti123     Ti     0.125   0.625   0.125
Ti124     Ti     0.125   0.625   0.625
Ti125     Ti     0.625   0.125   0.125
Ti126     Ti     0.625   0.125   0.625
Ti127     Ti     0.625   0.625   0.125
Ti128     Ti     0.625   0.625   0.625
loop_
_geom_bond_atom_site_label_1
_geom_bond_atom_site_label_2
_geom_bond_distance
_geom_bond_site_symmetry_2
_ccdc_geom_bond_type
V1     Ti121    9.762   .     S
V1     Ti81    9.762   .     S
V1     Ti65    9.762   .     S
V1     Ti113    9.762   .     S
V1     Ti73    9.762   .     S
V1     Ti97    9.762   .     S
V1     Ti57    9.762   .     S
V1     Ti105    9.762   .     S
V2     Ti122    9.762   .     S
V2     Ti82    9.762   .     S
V2     Ti66    9.762   .     S
V2     Ti114    9.762   .     S
V2     Ti74    9.762   .     S
V2     Ti98    9.762   .     S
V2     Ti58    9.762   .     S
V2     Ti106    9.762   .     S
V3     Ti123    9.762   .     S
V3     Ti83    9.762   .     S
V3     Ti67    9.762   .     S
V3     Ti115    9.762   .     S
V3     Ti75    9.762   .     S
V3     Ti99    9.762   .     S
V3     Ti59    9.762   .     S
V3     Ti107    9.762   .     S
V4     Ti124    9.762   .     S
V4     Ti84    9.762   .     S
V4     Ti68    9.762   .     S
V4     Ti116    9.762   .     S
V4     Ti76    9.762   .     S
V4     Ti100    9.762   .     S
V4     Ti60    9.762   .     S
V4     Ti108    9.762   .     S
V5     Ti125    9.762   .     S
V5     Ti85    9.762   .     S
V5     Ti69    9.762   .     S
V5     Ti117    9.762   .     S
V5     Ti77    9.762   .     S
V5     Ti101    9.762   .     S
V5     Ti61    9.762   .     S
V5     Ti109    9.762   .     S
V6     Ti126    9.762   .     S
V6     Ti86    9.762   .     S
V6     Ti70    9.762   .     S
V6     Ti118    9.762   .     S
V6     Ti78    9.762   .     S
V6     Ti102    9.762   .     S
V6     Ti62    9.762   .     S
V6     Ti110    9.762   .     S
V7     Ti127    9.762   .     S
V7     Ti87    9.762   .     S
V7     Ti71    9.762   .     S
V7     Ti119    9.762   .     S
V7     Ti79    9.762   .     S
V7     Ti103    9.762   .     S
V7     Ti63    9.762   .     S
V7     Ti111    9.762   .     S
V8     Ti128    9.762   .     S
V8     Ti88    9.762   .     S
V8     Ti72    9.762   .     S
V8     Ti120    9.762   .     S
V8     Ti80    9.762   .     S
V8     Ti104    9.762   .     S
V8     Ti64    9.762   .     S
V8     Ti112    9.762   .     S
Er9     Er34    11.272   .     S
Er9     Er33    11.272   .     S
Er9     Er91    11.272   .     S
Er9     Er89    11.272   .     S
Er9     Ti101    9.762   1_455     S
Er9     Ti85    9.762   1_455     S
Er9     Ti113    9.762   .     S
Er9     Ti105    9.762   .     S
Er9     Ti61    9.762   1_455     S
Er9     Ti121    9.762   .     S
Er9     Ti77    9.762   1_455     S
Er9     Ti65    9.762   .     S
Er10     Er33    11.272   1_556     S
Er10     Er34    11.272   .     S
Er10     Er92    11.272   .     S
Er10     Er90    11.272   .     S
Er10     Ti102    9.762   1_455     S
Er10     Ti86    9.762   1_455     S
Er10     Ti114    9.762   .     S
Er10     Ti106    9.762   .     S
Er10     Ti62    9.762   1_455     S
Er10     Ti122    9.762   .     S
Er10     Ti78    9.762   1_455     S
Er10     Ti66    9.762   .     S
Er11     Er36    11.272   .     S
Er11     Er35    11.272   .     S
Er11     Er89    11.272   1_565     S
Er11     Er91    11.272   .     S
Er11     Ti103    9.762   1_455     S
Er11     Ti87    9.762   1_455     S
Er11     Ti115    9.762   .     S
Er11     Ti107    9.762   .     S
Er11     Ti63    9.762   1_455     S
Er11     Ti123    9.762   .     S
Er11     Ti79    9.762   1_455     S
Er11     Ti67    9.762   .     S
Er12     Er35    11.272   1_556     S
Er12     Er36    11.272   .     S
Er12     Er90    11.272   1_565     S
Er12     Er92    11.272   .     S
Er12     Ti104    9.762   1_455     S
Er12     Ti88    9.762   1_455     S
Er12     Ti116    9.762   .     S
Er12     Ti108    9.762   .     S
Er12     Ti64    9.762   1_455     S
Er12     Ti124    9.762   .     S
Er12     Ti80    9.762   1_455     S
Er12     Ti68    9.762   .     S
Er13     Er38    11.272   .     S
Er13     Er37    11.272   .     S
Er13     Er95    11.272   .     S
Er13     Er93    11.272   .     S
Er13     Ti97    9.762   .     S
Er13     Ti81    9.762   .     S
Er13     Ti117    9.762   .     S
Er13     Ti109    9.762   .     S
Er13     Ti57    9.762   .     S
Er13     Ti125    9.762   .     S
Er13     Ti73    9.762   .     S
Er13     Ti69    9.762   .     S
Er14     Er37    11.272   1_556     S
Er14     Er38    11.272   .     S
Er14     Er96    11.272   .     S
Er14     Er94    11.272   .     S
Er14     Ti98    9.762   .     S
Er14     Ti82    9.762   .     S
Er14     Ti118    9.762   .     S
Er14     Ti110    9.762   .     S
Er14     Ti58    9.762   .     S
Er14     Ti126    9.762   .     S
Er14     Ti74    9.762   .     S
Er14     Ti70    9.762   .     S
Er15     Er40    11.272   .     S
Er15     Er39    11.272   .     S
Er15     Er93    11.272   1_565     S
Er15     Er95    11.272   .     S
Er15     Ti99    9.762   .     S
Er15     Ti83    9.762   .     S
Er15     Ti119    9.762   .     S
Er15     Ti111    9.762   .     S
Er15     Ti59    9.762   .     S
Er15     Ti127    9.762   .     S
Er15     Ti75    9.762   .     S
Er15     Ti71    9.762   .     S
Er16     Er39    11.272   1_556     S
Er16     Er40    11.272   .     S
Er16     Er94    11.272   1_565     S
Er16     Er96    11.272   .     S
Er16     Ti100    9.762   .     S
Er16     Ti84    9.762   .     S
Er16     Ti120    9.762   .     S
Er16     Ti112    9.762   .     S
Er16     Ti60    9.762   .     S
Er16     Ti128    9.762   .     S
Er16     Ti76    9.762   .     S
Er16     Ti72    9.762   .     S
Er17     Er42    11.272   .     S
Er17     Er41    11.272   .     S
Er17     Er93    11.272   .     S
Er17     Er89    11.272   .     S
Er17     Ti67    9.762   1_545     S
Er17     Ti73    9.762   .     S
Er17     Ti59    9.762   1_545     S
Er17     Ti121    9.762   .     S
Er17     Ti83    9.762   1_545     S
Er17     Ti97    9.762   .     S
Er17     Ti107    9.762   1_545     S
Er17     Ti113    9.762   .     S
Er18     Er41    11.272   1_556     S
Er18     Er42    11.272   .     S
Er18     Er94    11.272   .     S
Er18     Er90    11.272   .     S
Er18     Ti68    9.762   1_545     S
Er18     Ti74    9.762   .     S
Er18     Ti60    9.762   1_545     S
Er18     Ti122    9.762   .     S
Er18     Ti84    9.762   1_545     S
Er18     Ti98    9.762   .     S
Er18     Ti108    9.762   1_545     S
Er18     Ti114    9.762   .     S
Er19     Er44    11.272   .     S
Er19     Er43    11.272   .     S
Er19     Er95    11.272   .     S
Er19     Er91    11.272   .     S
Er19     Ti65    9.762   .     S
Er19     Ti75    9.762   .     S
Er19     Ti57    9.762   .     S
Er19     Ti123    9.762   .     S
Er19     Ti81    9.762   .     S
Er19     Ti99    9.762   .     S
Er19     Ti105    9.762   .     S
Er19     Ti115    9.762   .     S
Er20     Er43    11.272   1_556     S
Er20     Er44    11.272   .     S
Er20     Er96    11.272   .     S
Er20     Er92    11.272   .     S
Er20     Ti66    9.762   .     S
Er20     Ti76    9.762   .     S
Er20     Ti58    9.762   .     S
Er20     Ti124    9.762   .     S
Er20     Ti82    9.762   .     S
Er20     Ti100    9.762   .     S
Er20     Ti106    9.762   .     S
Er20     Ti116    9.762   .     S
Er21     Er46    11.272   .     S
Er21     Er45    11.272   .     S
Er21     Er89    11.272   1_655     S
Er21     Er93    11.272   .     S
Er21     Ti71    9.762   1_545     S
Er21     Ti77    9.762   .     S
Er21     Ti63    9.762   1_545     S
Er21     Ti125    9.762   .     S
Er21     Ti87    9.762   1_545     S
Er21     Ti101    9.762   .     S
Er21     Ti111    9.762   1_545     S
Er21     Ti117    9.762   .     S
Er22     Er45    11.272   1_556     S
Er22     Er46    11.272   .     S
Er22     Er90    11.272   1_655     S
Er22     Er94    11.272   .     S
Er22     Ti72    9.762   1_545     S
Er22     Ti78    9.762   .     S
Er22     Ti64    9.762   1_545     S
Er22     Ti126    9.762   .     S
Er22     Ti88    9.762   1_545     S
Er22     Ti102    9.762   .     S
Er22     Ti112    9.762   1_545     S
Er22     Ti118    9.762   .     S
Er23     Er48    11.272   .     S
Er23     Er47    11.272   .     S
Er23     Er91    11.272   1_655     S
Er23     Er95    11.272   .     S
Er23     Ti69    9.762   .     S
Er23     Ti79    9.762   .     S
Er23     Ti61    9.762   .     S
Er23     Ti127    9.762   .     S
Er23     Ti85    9.762   .     S
Er23     Ti103    9.762   .     S
Er23     Ti109    9.762   .     S
Er23     Ti119    9.762   .     S
Er24     Er47    11.272   1_556     S
Er24     Er48    11.272   .     S
Er24     Er92    11.272   1_655     S
Er24     Er96    11.272   .     S
Er24     Ti70    9.762   .     S
Er24     Ti80    9.762   .     S
Er24     Ti62    9.762   .     S
Er24     Ti128    9.762   .     S
Er24     Ti86    9.762   .     S
Er24     Ti104    9.762   .     S
Er24     Ti110    9.762   .     S
Er24     Ti120    9.762   .     S
Er25     Er37    11.272   .     S
Er25     Er33    11.272   .     S
Er25     Er43    11.272   .     S
Er25     Er41    11.272   .     S
Er25     Ti66    9.762   1_554     S
Er25     Ti82    9.762   1_554     S
Er25     Ti114    9.762   1_554     S
Er25     Ti74    9.762   1_554     S
Er25     Ti97    9.762   .     S
Er25     Ti57    9.762   .     S
Er25     Ti105    9.762   .     S
Er25     Ti121    9.762   .     S
Er26     Er38    11.272   .     S
Er26     Er34    11.272   .     S
Er26     Er44    11.272   .     S
Er26     Er42    11.272   .     S
Er26     Ti65    9.762   .     S
Er26     Ti81    9.762   .     S
Er26     Ti113    9.762   .     S
Er26     Ti73    9.762   .     S
Er26     Ti98    9.762   .     S
Er26     Ti58    9.762   .     S
Er26     Ti106    9.762   .     S
Er26     Ti122    9.762   .     S
Er27     Er39    11.272   .     S
Er27     Er35    11.272   .     S
Er27     Er41    11.272   1_565     S
Er27     Er43    11.272   .     S
Er27     Ti68    9.762   1_554     S
Er27     Ti84    9.762   1_554     S
Er27     Ti116    9.762   1_554     S
Er27     Ti76    9.762   1_554     S
Er27     Ti99    9.762   .     S
Er27     Ti59    9.762   .     S
Er27     Ti107    9.762   .     S
Er27     Ti123    9.762   .     S
Er28     Er40    11.272   .     S
Er28     Er36    11.272   .     S
Er28     Er42    11.272   1_565     S
Er28     Er44    11.272   .     S
Er28     Ti67    9.762   .     S
Er28     Ti83    9.762   .     S
Er28     Ti115    9.762   .     S
Er28     Ti75    9.762   .     S
Er28     Ti100    9.762   .     S
Er28     Ti60    9.762   .     S
Er28     Ti108    9.762   .     S
Er28     Ti124    9.762   .     S
Er29     Er33    11.272   1_655     S
Er29     Er37    11.272   .     S
Er29     Er47    11.272   .     S
Er29     Er45    11.272   .     S
Er29     Ti70    9.762   1_554     S
Er29     Ti86    9.762   1_554     S
Er29     Ti118    9.762   1_554     S
Er29     Ti78    9.762   1_554     S
Er29     Ti101    9.762   .     S
Er29     Ti61    9.762   .     S
Er29     Ti109    9.762   .     S
Er29     Ti125    9.762   .     S
Er30     Er34    11.272   1_655     S
Er30     Er38    11.272   .     S
Er30     Er48    11.272   .     S
Er30     Er46    11.272   .     S
Er30     Ti69    9.762   .     S
Er30     Ti85    9.762   .     S
Er30     Ti117    9.762   .     S
Er30     Ti77    9.762   .     S
Er30     Ti102    9.762   .     S
Er30     Ti62    9.762   .     S
Er30     Ti110    9.762   .     S
Er30     Ti126    9.762   .     S
Er31     Er35    11.272   1_655     S
Er31     Er39    11.272   .     S
Er31     Er45    11.272   1_565     S
Er31     Er47    11.272   .     S
Er31     Ti72    9.762   1_554     S
Er31     Ti88    9.762   1_554     S
Er31     Ti120    9.762   1_554     S
Er31     Ti80    9.762   1_554     S
Er31     Ti103    9.762   .     S
Er31     Ti63    9.762   .     S
Er31     Ti111    9.762   .     S
Er31     Ti127    9.762   .     S
Er32     Er36    11.272   1_655     S
Er32     Er40    11.272   .     S
Er32     Er46    11.272   1_565     S
Er32     Er48    11.272   .     S
Er32     Ti71    9.762   .     S
Er32     Ti87    9.762   .     S
Er32     Ti119    9.762   .     S
Er32     Ti79    9.762   .     S
Er32     Ti104    9.762   .     S
Er32     Ti64    9.762   .     S
Er32     Ti112    9.762   .     S
Er32     Ti128    9.762   .     S
Er33     Er10    11.272   1_554     S
Er33     Er29    11.272   1_455     S
Er33     Ti78    9.762   1_454     S
Er33     Ti101    9.762   1_455     S
Er33     Ti114    9.762   1_554     S
Er33     Ti86    9.762   1_454     S
Er33     Ti66    9.762   1_554     S
Er33     Ti61    9.762   1_455     S
Er33     Ti105    9.762   .     S
Er33     Ti121    9.762   .     S
Er34     Er30    11.272   1_455     S
Er34     Ti77    9.762   1_455     S
Er34     Ti102    9.762   1_455     S
Er34     Ti113    9.762   .     S
Er34     Ti85    9.762   1_455     S
Er34     Ti65    9.762   .     S
Er34     Ti62    9.762   1_455     S
Er34     Ti106    9.762   .     S
Er34     Ti122    9.762   .     S
Er35     Er12    11.272   1_554     S
Er35     Er31    11.272   1_455     S
Er35     Ti80    9.762   1_454     S
Er35     Ti103    9.762   1_455     S
Er35     Ti116    9.762   1_554     S
Er35     Ti88    9.762   1_454     S
Er35     Ti68    9.762   1_554     S
Er35     Ti63    9.762   1_455     S
Er35     Ti107    9.762   .     S
Er35     Ti123    9.762   .     S
Er36     Er32    11.272   1_455     S
Er36     Ti79    9.762   1_455     S
Er36     Ti104    9.762   1_455     S
Er36     Ti115    9.762   .     S
Er36     Ti87    9.762   1_455     S
Er36     Ti67    9.762   .     S
Er36     Ti64    9.762   1_455     S
Er36     Ti108    9.762   .     S
Er36     Ti124    9.762   .     S
Er37     Er14    11.272   1_554     S
Er37     Ti74    9.762   1_554     S
Er37     Ti97    9.762   .     S
Er37     Ti118    9.762   1_554     S
Er37     Ti82    9.762   1_554     S
Er37     Ti70    9.762   1_554     S
Er37     Ti57    9.762   .     S
Er37     Ti109    9.762   .     S
Er37     Ti125    9.762   .     S
Er38     Ti73    9.762   .     S
Er38     Ti98    9.762   .     S
Er38     Ti117    9.762   .     S
Er38     Ti81    9.762   .     S
Er38     Ti69    9.762   .     S
Er38     Ti58    9.762   .     S
Er38     Ti110    9.762   .     S
Er38     Ti126    9.762   .     S
Er39     Er16    11.272   1_554     S
Er39     Ti76    9.762   1_554     S
Er39     Ti99    9.762   .     S
Er39     Ti120    9.762   1_554     S
Er39     Ti84    9.762   1_554     S
Er39     Ti72    9.762   1_554     S
Er39     Ti59    9.762   .     S
Er39     Ti111    9.762   .     S
Er39     Ti127    9.762   .     S
Er40     Ti75    9.762   .     S
Er40     Ti100    9.762   .     S
Er40     Ti119    9.762   .     S
Er40     Ti83    9.762   .     S
Er40     Ti71    9.762   .     S
Er40     Ti60    9.762   .     S
Er40     Ti112    9.762   .     S
Er40     Ti128    9.762   .     S
Er41     Er18    11.272   1_554     S
Er41     Er27    11.272   1_545     S
Er41     Ti68    9.762   1_544     S
Er41     Ti59    9.762   1_545     S
Er41     Ti74    9.762   1_554     S
Er41     Ti114    9.762   1_554     S
Er41     Ti84    9.762   1_544     S
Er41     Ti107    9.762   1_545     S
Er41     Ti121    9.762   .     S
Er41     Ti97    9.762   .     S
Er42     Er28    11.272   1_545     S
Er42     Ti67    9.762   1_545     S
Er42     Ti60    9.762   1_545     S
Er42     Ti73    9.762   .     S
Er42     Ti113    9.762   .     S
Er42     Ti83    9.762   1_545     S
Er42     Ti108    9.762   1_545     S
Er42     Ti122    9.762   .     S
Er42     Ti98    9.762   .     S
Er43     Er20    11.272   1_554     S
Er43     Ti66    9.762   1_554     S
Er43     Ti57    9.762   .     S
Er43     Ti76    9.762   1_554     S
Er43     Ti116    9.762   1_554     S
Er43     Ti82    9.762   1_554     S
Er43     Ti105    9.762   .     S
Er43     Ti123    9.762   .     S
Er43     Ti99    9.762   .     S
Er44     Ti65    9.762   .     S
Er44     Ti58    9.762   .     S
Er44     Ti75    9.762   .     S
Er44     Ti115    9.762   .     S
Er44     Ti81    9.762   .     S
Er44     Ti106    9.762   .     S
Er44     Ti124    9.762   .     S
Er44     Ti100    9.762   .     S
Er45     Er22    11.272   1_554     S
Er45     Er31    11.272   1_545     S
Er45     Ti72    9.762   1_544     S
Er45     Ti63    9.762   1_545     S
Er45     Ti78    9.762   1_554     S
Er45     Ti118    9.762   1_554     S
Er45     Ti88    9.762   1_544     S
Er45     Ti111    9.762   1_545     S
Er45     Ti125    9.762   .     S
Er45     Ti101    9.762   .     S
Er46     Er32    11.272   1_545     S
Er46     Ti71    9.762   1_545     S
Er46     Ti64    9.762   1_545     S
Er46     Ti77    9.762   .     S
Er46     Ti117    9.762   .     S
Er46     Ti87    9.762   1_545     S
Er46     Ti112    9.762   1_545     S
Er46     Ti126    9.762   .     S
Er46     Ti102    9.762   .     S
Er47     Er24    11.272   1_554     S
Er47     Ti70    9.762   1_554     S
Er47     Ti61    9.762   .     S
Er47     Ti80    9.762   1_554     S
Er47     Ti120    9.762   1_554     S
Er47     Ti86    9.762   1_554     S
Er47     Ti109    9.762   .     S
Er47     Ti127    9.762   .     S
Er47     Ti103    9.762   .     S
Er48     Ti69    9.762   .     S
Er48     Ti62    9.762   .     S
Er48     Ti79    9.762   .     S
Er48     Ti119    9.762   .     S
Er48     Ti85    9.762   .     S
Er48     Ti110    9.762   .     S
Er48     Ti128    9.762   .     S
Er48     Ti104    9.762   .     S
V49     Ti63    9.762   1_445     S
V49     Ti68    9.762   1_544     S
V49     Ti78    9.762   1_454     S
V49     Ti88    9.762   1_444     S
V49     Ti101    9.762   1_455     S
V49     Ti107    9.762   1_545     S
V49     Ti114    9.762   1_554     S
V49     Ti121    9.762   .     S
V50     Ti64    9.762   1_445     S
V50     Ti67    9.762   1_545     S
V50     Ti77    9.762   1_455     S
V50     Ti87    9.762   1_445     S
V50     Ti102    9.762   1_455     S
V50     Ti108    9.762   1_545     S
V50     Ti113    9.762   .     S
V50     Ti122    9.762   .     S
V51     Ti61    9.762   1_455     S
V51     Ti66    9.762   1_554     S
V51     Ti80    9.762   1_454     S
V51     Ti86    9.762   1_454     S
V51     Ti103    9.762   1_455     S
V51     Ti105    9.762   .     S
V51     Ti116    9.762   1_554     S
V51     Ti123    9.762   .     S
V52     Ti62    9.762   1_455     S
V52     Ti65    9.762   .     S
V52     Ti79    9.762   1_455     S
V52     Ti85    9.762   1_455     S
V52     Ti104    9.762   1_455     S
V52     Ti106    9.762   .     S
V52     Ti115    9.762   .     S
V52     Ti124    9.762   .     S
V53     Ti59    9.762   1_545     S
V53     Ti72    9.762   1_544     S
V53     Ti74    9.762   1_554     S
V53     Ti84    9.762   1_544     S
V53     Ti97    9.762   .     S
V53     Ti111    9.762   1_545     S
V53     Ti118    9.762   1_554     S
V53     Ti125    9.762   .     S
V54     Ti60    9.762   1_545     S
V54     Ti71    9.762   1_545     S
V54     Ti73    9.762   .     S
V54     Ti83    9.762   1_545     S
V54     Ti98    9.762   .     S
V54     Ti112    9.762   1_545     S
V54     Ti117    9.762   .     S
V54     Ti126    9.762   .     S
V55     Ti57    9.762   .     S
V55     Ti70    9.762   1_554     S
V55     Ti76    9.762   1_554     S
V55     Ti82    9.762   1_554     S
V55     Ti99    9.762   .     S
V55     Ti109    9.762   .     S
V55     Ti120    9.762   1_554     S
V55     Ti127    9.762   .     S
V56     Ti58    9.762   .     S
V56     Ti69    9.762   .     S
V56     Ti75    9.762   .     S
V56     Ti81    9.762   .     S
V56     Ti100    9.762   .     S
V56     Ti110    9.762   .     S
V56     Ti119    9.762   .     S
V56     Ti128    9.762   .     S
Ti57     Er95    9.762   .     S
Ti58     Er96    9.762   .     S
Ti59     Er17    9.762   1_565     S
Ti59     Er41    9.762   1_565     S
Ti59     V53    9.762   1_565     S
Ti59     Er93    9.762   1_565     S
Ti60     Er18    9.762   1_565     S
Ti60     Er42    9.762   1_565     S
Ti60     V54    9.762   1_565     S
Ti60     Er94    9.762   1_565     S
Ti61     Er9    9.762   1_655     S
Ti61     Er33    9.762   1_655     S
Ti61     V51    9.762   1_655     S
Ti61     Er91    9.762   1_655     S
Ti62     Er10    9.762   1_655     S
Ti62     Er34    9.762   1_655     S
Ti62     V52    9.762   1_655     S
Ti62     Er92    9.762   1_655     S
Ti63     Er11    9.762   1_655     S
Ti63     Er21    9.762   1_565     S
Ti63     Er35    9.762   1_655     S
Ti63     Er45    9.762   1_565     S
Ti63     V49    9.762   1_665     S
Ti63     Er89    9.762   1_665     S
Ti64     Er12    9.762   1_655     S
Ti64     Er22    9.762   1_565     S
Ti64     Er36    9.762   1_655     S
Ti64     Er46    9.762   1_565     S
Ti64     V50    9.762   1_665     S
Ti64     Er90    9.762   1_665     S
Ti65     Er91    9.762   .     S
Ti66     Er25    9.762   1_556     S
Ti66     Er33    9.762   1_556     S
Ti66     Er43    9.762   1_556     S
Ti66     V51    9.762   1_556     S
Ti66     Er92    9.762   .     S
Ti67     Er17    9.762   1_565     S
Ti67     Er42    9.762   1_565     S
Ti67     V50    9.762   1_565     S
Ti67     Er89    9.762   1_565     S
Ti68     Er18    9.762   1_565     S
Ti68     Er27    9.762   1_556     S
Ti68     Er35    9.762   1_556     S
Ti68     Er41    9.762   1_566     S
Ti68     V49    9.762   1_566     S
Ti68     Er90    9.762   1_565     S
Ti69     Er95    9.762   .     S
Ti70     Er29    9.762   1_556     S
Ti70     Er37    9.762   1_556     S
Ti70     Er47    9.762   1_556     S
Ti70     V55    9.762   1_556     S
Ti70     Er96    9.762   .     S
Ti71     Er21    9.762   1_565     S
Ti71     Er46    9.762   1_565     S
Ti71     V54    9.762   1_565     S
Ti71     Er93    9.762   1_565     S
Ti72     Er22    9.762   1_565     S
Ti72     Er31    9.762   1_556     S
Ti72     Er39    9.762   1_556     S
Ti72     Er45    9.762   1_566     S
Ti72     V53    9.762   1_566     S
Ti72     Er94    9.762   1_565     S
Ti73     Er93    9.762   .     S
Ti74     Er25    9.762   1_556     S
Ti74     Er37    9.762   1_556     S
Ti74     Er41    9.762   1_556     S
Ti74     V53    9.762   1_556     S
Ti74     Er94    9.762   .     S
Ti75     Er95    9.762   .     S
Ti76     Er27    9.762   1_556     S
Ti76     Er39    9.762   1_556     S
Ti76     Er43    9.762   1_556     S
Ti76     V55    9.762   1_556     S
Ti76     Er96    9.762   .     S
Ti77     Er9    9.762   1_655     S
Ti77     Er34    9.762   1_655     S
Ti77     V50    9.762   1_655     S
Ti77     Er89    9.762   1_655     S
Ti78     Er10    9.762   1_655     S
Ti78     Er29    9.762   1_556     S
Ti78     Er33    9.762   1_656     S
Ti78     Er45    9.762   1_556     S
Ti78     V49    9.762   1_656     S
Ti78     Er90    9.762   1_655     S
Ti79     Er11    9.762   1_655     S
Ti79     Er36    9.762   1_655     S
Ti79     V52    9.762   1_655     S
Ti79     Er91    9.762   1_655     S
Ti80     Er12    9.762   1_655     S
Ti80     Er31    9.762   1_556     S
Ti80     Er35    9.762   1_656     S
Ti80     Er47    9.762   1_556     S
Ti80     V51    9.762   1_656     S
Ti80     Er92    9.762   1_655     S
Ti81     Er95    9.762   .     S
Ti82     Er25    9.762   1_556     S
Ti82     Er37    9.762   1_556     S
Ti82     Er43    9.762   1_556     S
Ti82     V55    9.762   1_556     S
Ti82     Er96    9.762   .     S
Ti83     Er17    9.762   1_565     S
Ti83     Er42    9.762   1_565     S
Ti83     V54    9.762   1_565     S
Ti83     Er93    9.762   1_565     S
Ti84     Er18    9.762   1_565     S
Ti84     Er27    9.762   1_556     S
Ti84     Er39    9.762   1_556     S
Ti84     Er41    9.762   1_566     S
Ti84     V53    9.762   1_566     S
Ti84     Er94    9.762   1_565     S
Ti85     Er9    9.762   1_655     S
Ti85     Er34    9.762   1_655     S
Ti85     V52    9.762   1_655     S
Ti85     Er91    9.762   1_655     S
Ti86     Er10    9.762   1_655     S
Ti86     Er29    9.762   1_556     S
Ti86     Er33    9.762   1_656     S
Ti86     Er47    9.762   1_556     S
Ti86     V51    9.762   1_656     S
Ti86     Er92    9.762   1_655     S
Ti87     Er11    9.762   1_655     S
Ti87     Er21    9.762   1_565     S
Ti87     Er36    9.762   1_655     S
Ti87     Er46    9.762   1_565     S
Ti87     V50    9.762   1_665     S
Ti87     Er89    9.762   1_665     S
Ti88     Er12    9.762   1_655     S
Ti88     Er22    9.762   1_565     S
Ti88     Er31    9.762   1_556     S
Ti88     Er35    9.762   1_656     S
Ti88     Er45    9.762   1_566     S
Ti88     V49    9.762   1_666     S
Ti88     Er90    9.762   1_665     S
Er89     Er21    11.272   1_455     S
Er89     Er11    11.272   1_545     S
Er89     Ti63    9.762   1_445     S
Er89     Ti101    9.762   1_455     S
Er89     Ti107    9.762   1_545     S
Er89     Ti67    9.762   1_545     S
Er89     Ti77    9.762   1_455     S
Er89     Ti87    9.762   1_445     S
Er89     Ti121    9.762   .     S
Er89     Ti113    9.762   .     S
Er90     Er22    11.272   1_455     S
Er90     Er12    11.272   1_545     S
Er90     Ti64    9.762   1_445     S
Er90     Ti102    9.762   1_455     S
Er90     Ti108    9.762   1_545     S
Er90     Ti68    9.762   1_545     S
Er90     Ti78    9.762   1_455     S
Er90     Ti88    9.762   1_445     S
Er90     Ti122    9.762   .     S
Er90     Ti114    9.762   .     S
Er91     Er23    11.272   1_455     S
Er91     Ti61    9.762   1_455     S
Er91     Ti103    9.762   1_455     S
Er91     Ti105    9.762   .     S
Er91     Ti79    9.762   1_455     S
Er91     Ti85    9.762   1_455     S
Er91     Ti123    9.762   .     S
Er91     Ti115    9.762   .     S
Er92     Er24    11.272   1_455     S
Er92     Ti62    9.762   1_455     S
Er92     Ti104    9.762   1_455     S
Er92     Ti106    9.762   .     S
Er92     Ti80    9.762   1_455     S
Er92     Ti86    9.762   1_455     S
Er92     Ti124    9.762   .     S
Er92     Ti116    9.762   .     S
Er93     Er15    11.272   1_545     S
Er93     Ti59    9.762   1_545     S
Er93     Ti97    9.762   .     S
Er93     Ti111    9.762   1_545     S
Er93     Ti71    9.762   1_545     S
Er93     Ti83    9.762   1_545     S
Er93     Ti125    9.762   .     S
Er93     Ti117    9.762   .     S
Er94     Er16    11.272   1_545     S
Er94     Ti60    9.762   1_545     S
Er94     Ti98    9.762   .     S
Er94     Ti112    9.762   1_545     S
Er94     Ti72    9.762   1_545     S
Er94     Ti84    9.762   1_545     S
Er94     Ti126    9.762   .     S
Er94     Ti118    9.762   .     S
Er95     Ti99    9.762   .     S
Er95     Ti109    9.762   .     S
Er95     Ti127    9.762   .     S
Er95     Ti119    9.762   .     S
Er96     Ti100    9.762   .     S
Er96     Ti110    9.762   .     S
Er96     Ti128    9.762   .     S
Er96     Ti120    9.762   .     S
Ti101     Er9    9.762   1_655     S
Ti101     Er33    9.762   1_655     S
Ti101     Er89    9.762   1_655     S
Ti101     V49    9.762   1_655     S
Ti102     Er10    9.762   1_655     S
Ti102     Er34    9.762   1_655     S
Ti102     Er90    9.762   1_655     S
Ti102     V50    9.762   1_655     S
Ti103     Er11    9.762   1_655     S
Ti103     Er35    9.762   1_655     S
Ti103     Er91    9.762   1_655     S
Ti103     V51    9.762   1_655     S
Ti104     Er12    9.762   1_655     S
Ti104     Er36    9.762   1_655     S
Ti104     Er92    9.762   1_655     S
Ti104     V52    9.762   1_655     S
Ti107     Er17    9.762   1_565     S
Ti107     Er41    9.762   1_565     S
Ti107     Er89    9.762   1_565     S
Ti107     V49    9.762   1_565     S
Ti108     Er18    9.762   1_565     S
Ti108     Er42    9.762   1_565     S
Ti108     Er90    9.762   1_565     S
Ti108     V50    9.762   1_565     S
Ti111     Er21    9.762   1_565     S
Ti111     Er45    9.762   1_565     S
Ti111     Er93    9.762   1_565     S
Ti111     V53    9.762   1_565     S
Ti112     Er22    9.762   1_565     S
Ti112     Er46    9.762   1_565     S
Ti112     Er94    9.762   1_565     S
Ti112     V54    9.762   1_565     S
Ti114     Er25    9.762   1_556     S
Ti114     Er33    9.762   1_556     S
Ti114     Er41    9.762   1_556     S
Ti114     V49    9.762   1_556     S
Ti116     Er27    9.762   1_556     S
Ti116     Er35    9.762   1_556     S
Ti116     Er43    9.762   1_556     S
Ti116     V51    9.762   1_556     S
Ti118     Er29    9.762   1_556     S
Ti118     Er37    9.762   1_556     S
Ti118     Er45    9.762   1_556     S
Ti118     V53    9.762   1_556     S
Ti120     Er31    9.762   1_556     S
Ti120     Er39    9.762   1_556     S
Ti120     Er47    9.762   1_556     S
Ti120     V55    9.762   1_556     S
