data_csq_v1-4c_Cu_1_Ch_v2-8c_Zr_1_Ch_1B_4H_Ch
_audit_creation_date              2019-09-04
_audit_creation_method            'tobacco_3.0'
_symmetry_space_group_name_H-M    'P1'
_symmetry_Int_Tables_number       1
_symmetry_cell_setting            triclinic
loop_
_symmetry_equiv_pos_as_xyz
  x,y,z
_cell_length_a                    40.81805178227177
_cell_length_b                    40.818064413110804
_cell_length_c                    30.15234477775876
_cell_angle_alpha                 90.00006697565276
_cell_angle_beta                  90.00006788681318
_cell_angle_gamma                 120.00640545321323
loop_
_atom_site_label
_atom_site_type_symbol
_atom_site_fract_x
_atom_site_fract_y
_atom_site_fract_z
O1         O    0.2006307372    0.4686767025    0.2044994386
O2         O    0.2677198986    0.4684115123    0.2955013513
O3         O    0.2006338285    0.4686791356    0.2955056958
O4         O    0.2677216940    0.4684090532    0.2044950958
O5         O    0.2993710582    0.5313208384    0.2044943059
O6         O    0.2322831421    0.5315908178    0.2954982741
O7         O    0.2993692628    0.5313232975    0.2955005614
O8         O    0.2322801014    0.5315884877    0.2044986487
Cu9       Cu    0.2312886582    0.4628030261    0.2500033448
Cu10      Cu    0.2687113418    0.5371969739    0.2499966552
C11        C    0.2065633267    0.5001725273    0.1910816517
C12        C    0.2934366733    0.4998274727    0.3089183483
C13        C    0.2065647541    0.5001723106    0.3089161846
C14        C    0.2934352459    0.4998276894    0.1910838154
O15        O    0.4705907291    0.7025450920    0.2954975540
O16        O    0.4703260020    0.7696342306    0.2044955360
O17        O    0.4705935783    0.7025481576    0.2044912967
O18        O    0.4703231267    0.7696360517    0.2955017914
O19        O    0.5332349314    0.8012853732    0.2955032771
O20        O    0.5335052801    0.7341974285    0.2044994143
O21        O    0.5332378067    0.8012835521    0.2044970216
O22        O    0.5335025338    0.7341944134    0.2954990396
Cu23      Cu    0.4647172825    0.7332030055    0.2499935316
Cu24      Cu    0.5391112533    0.7706256386    0.2500010440
C25        C    0.5020864954    0.7084776635    0.3089157043
C26        C    0.5017420404    0.7953509805    0.1910788713
C27        C    0.5020868175    0.7084790577    0.1910811714
C28        C    0.5017417183    0.7953495864    0.3089134042
O29        O    0.1997681013    0.7349166485    0.2954985214
O30        O    0.2669973598    0.8021445328    0.2044967923
O31        O    0.1997711980    0.7349170832    0.2044922642
O32        O    0.2669991599    0.8021490017    0.2955030478
O33        O    0.2984526631    0.7706964291    0.2955041995
O34        O    0.2312246509    0.7034645632    0.2045000477
O35        O    0.2984508629    0.7706919601    0.2044979440
O36        O    0.2312216044    0.7034640758    0.2954996731
Cu37      Cu    0.2305139475    0.7714023618    0.2499946740
Cu38      Cu    0.2677050167    0.7342062468    0.2500017913
C39        C    0.2055820999    0.7092769829    0.3089164621
C40        C    0.2926368642    0.7963316257    0.1910800032
C41        C    0.2055835431    0.7092783494    0.1910819292
C42        C    0.2926354211    0.7963302593    0.3089145362
O43        O    0.7330544637    0.5334825785    0.2954988559
O44        O    0.8004088968    0.5337480925    0.2044969815
O45        O    0.7330549905    0.5334801453    0.2044925987
O46        O    0.8004132829    0.5337505518    0.2955032369
O47        O    0.7691388886    0.4708387675    0.2955040271
O48        O    0.7017806486    0.4705684639    0.2045000207
O49        O    0.7691345025    0.4708363082    0.2044977716
O50        O    0.7017800695    0.4705707942    0.2954996460
Cu51      Cu    0.7695871945    0.5393564167    0.2499949688
Cu52      Cu    0.7326017718    0.4649624700    0.2500016587
C53        C    0.7074852297    0.5019867064    0.3089166373
C54        C    0.7947037366    0.5023321803    0.1910799902
C55        C    0.7074867041    0.5019869229    0.1910821044
C56        C    0.7947022622    0.5023319638    0.3089145231
O57        O    0.4684322389    0.2688594194    0.2044989708
O58        O    0.4681666813    0.2015047717    0.2955005571
O59        O    0.4684345814    0.2688586337    0.2955052280
O60        O    0.4681643127    0.2015006446    0.2044943016
O61        O    0.5310761165    0.2327750623    0.2044935975
O62        O    0.5313462824    0.3001329991    0.2954978920
O63        O    0.5310784852    0.2327791894    0.2954998530
O64        O    0.5313440427    0.3001338371    0.2044982667
Cu65      Cu    0.4625583771    0.2323265792    0.2500027059
Cu66      Cu    0.5369523470    0.2693120296    0.2499961178
C67        C    0.4999281272    0.2944286968    0.1910812749
C68        C    0.4995825968    0.2072099120    0.3089175489
C69        C    0.4999277933    0.2944268871    0.3089158078
C70        C    0.4995829308    0.2072117217    0.1910830160
O71        O    0.7678471147    0.3012963297    0.2044981809
O72        O    0.7006189538    0.2340669134    0.2954996159
O73        O    0.7678464035    0.3012930749    0.2955044381
O74        O    0.7006147613    0.2340652712    0.2044933604
O75        O    0.7320673726    0.2026118068    0.2044923226
O76        O    0.7992989623    0.2698396607    0.2954967684
O77        O    0.7320715651    0.2026134489    0.2954985781
O78        O    0.7992997260    0.2698428653    0.2044971430
Cu79      Cu    0.7313612595    0.2705504010    0.2500018708
Cu80      Cu    0.7685574203    0.2333593776    0.2499948882
C81        C    0.7934868404    0.2954823736    0.1910803404
C82        C    0.7064318394    0.2084274050    0.3089164186
C83        C    0.7934851160    0.2954807259    0.3089148733
C84        C    0.7064335638    0.2084290527    0.1910818857
O85        O    0.0566386646    0.4684080465   -0.0738563754
O86        O    0.1010785512    0.5240064702   -0.0252481271
C87        C    0.0928663123    0.4984242467   -0.0610167098
O88        O   -0.0450410215    0.5393523209   -0.0795554140
O89        O   -0.0932430200    0.4818574980   -0.0361748902
C90        C   -0.0821513218    0.5088924736   -0.0708454642
O91        O    0.0566490718    0.5902000400   -0.0738312139
O92        O    0.1010832273    0.5790257287   -0.0252361421
C93        C    0.0928745493    0.5964100089   -0.0609931466
O94        O   -0.0450514287    0.4175603273   -0.0795805755
O95        O   -0.0932476962    0.4268382396   -0.0361868752
C96        C   -0.0821595588    0.4109067114   -0.0708690275
Zr97      Zr    0.0046657638    0.4624487762   -0.0490672806
O98        O    0.0075153223    0.4672111828   -0.1186304945
O99        O   -0.0002777237    0.4078848367   -0.0478470835
Zr100     Zr    0.0046726339    0.5441730715   -0.0490476279
O101       O    0.0129876602    0.5482200043   -0.1191488464
O102       O   -0.0018699698    0.5924470835   -0.0436764292
O103       O    0.0393783494    0.5206678211   -0.0561515318
O104       O   -0.0293004709    0.4863266061   -0.0600175063
O105       O   -0.0518298298    0.4141485185    0.0859114095
O106       O   -0.0962583336    0.4253256558    0.0373166558
C107       C   -0.0880553073    0.4079385496    0.0730733422
O108       O    0.0498706708    0.5867882312    0.0916607710
O109       O    0.0980725898    0.5775131449    0.0482673889
C110       C    0.0869788008    0.5934418471    0.0829492230
O111       O   -0.0518194225    0.5359405120    0.0859365710
O112       O   -0.0962536575    0.4803449142    0.0373286408
C113       C   -0.0880470703    0.5059243118    0.0730969054
O114       O    0.0498602635    0.4649962376    0.0916356095
O115       O    0.0980679137    0.5224938864    0.0482554039
C116       C    0.0869705638    0.4954560849    0.0829256598
Zr117     Zr    0.0001522598    0.4601783130    0.0611281416
O118       O    0.0022899563    0.4620471927    0.1318884600
O119       O    0.0014964157    0.4089927904    0.0568204790
Zr120     Zr    0.0001591298    0.5419026083    0.0611477943
O121       O   -0.0042858365    0.5389556861    0.1312206083
O122       O    0.0024343426    0.5950308421    0.0552302969
Zr123     Zr    0.0587932822    0.5303675916    0.0092139699
Zr124     Zr   -0.0539740402    0.4739809669    0.0028662256
O125       O   -0.0345534557    0.4836835633    0.0682320455
O126       O    0.0341253646    0.5180247784    0.0720980200
O127       O   -0.0322304841    0.4373169013    0.0040786652
O128       O    0.0370553778    0.5670344831    0.0080018485
O129       O    0.0370474108    0.4719576695    0.0079783620
O130       O   -0.0322225172    0.5323937150    0.0041021517
H131       H   -0.0445869830    0.4786892724   -0.0921632153
H132       H    0.0542157084    0.5983311603    0.0089727016
H133       H   -0.0523969013    0.4747550475    0.0985128481
H134       H    0.0542038838    0.4578202959    0.0089392236
H135       H    0.0227742082    0.6149926885   -0.0366687029
H136       H   -0.0202001835    0.5911936290    0.0387523535
H137       H    0.0145560051    0.5325450399    0.1426358760
H138       H   -0.0191063087    0.4641981642    0.1436924536
H139       H   -0.0196304463    0.3911331731    0.0376599468
H140       H    0.0202789952    0.4087533863   -0.0297415341
H141       H    0.0289320985    0.4922337620   -0.1271388496
H142       H   -0.0070058928    0.5249977906   -0.1333532566
H143       H   -0.0027557796    0.4369156022    0.1424493608
H144       H    0.0051868962    0.4026030404   -0.0782478544
H145       H    0.0082293936    0.5684165415   -0.1300243910
H146       H   -0.0008754439    0.6025390063    0.0854403249
O147       O    0.4679373170    0.4121774562   -0.0738400769
O148       O    0.5235406366    0.4233481568   -0.0252402128
C149       C    0.4979530123    0.4059700640   -0.0610034020
O150       O    0.5388955284    0.5848159779   -0.0795696889
O151       O    0.4814087186    0.5755236884   -0.0361807784
C152       C    0.5084392103    0.5914653505   -0.0708567482
O153       O    0.5897358751    0.5339761020   -0.0738454950
O154       O    0.5785628606    0.4783704458   -0.0252420420
C155       C    0.5959440563    0.5039613146   -0.0610044411
O156       O    0.4170969703    0.4630173322   -0.0795642708
O157       O    0.4263864945    0.5205013994   -0.0361789492
C158       C    0.4104481663    0.4934741000   -0.0708557091
Zr159     Zr    0.4619866924    0.4581964601   -0.0490560084
O160       O    0.4667395160    0.4601001716   -0.1186200593
O161       O    0.4074205099    0.4085687993   -0.0478227312
Zr162     Zr    0.5437153930    0.5399253330   -0.0490568750
O163       O    0.5477520449    0.5356476368   -0.1191580651
O164       O    0.5919934433    0.5947498031   -0.0436986187
O165       O    0.5202041836    0.4817082408   -0.0561505216
O166       O    0.4858679477    0.5160441588   -0.0600164919
O167       O    0.4137083861    0.4664067695    0.0859277174
O168       O    0.4248842261    0.5220096002    0.0373245825
C169       C    0.4075002048    0.4964215569    0.0730866635
O170       O    0.5863472908    0.5373655393    0.0916464932
O171       O    0.5770605922    0.4798786465    0.0482614897
C172       C    0.5929960949    0.5069087715    0.0829379315
O173       O    0.5355069442    0.5882054153    0.0859222993
O174       O    0.4799064502    0.5770318892    0.0373227533
C175       C    0.5054912489    0.5944128075    0.0730856244
O176       O    0.4645487327    0.4155668935    0.0916519113
O177       O    0.5220383682    0.4248563575    0.0482633189
C178       C    0.4950050508    0.4089175209    0.0829389706
Zr179     Zr    0.4597316937    0.4604547130    0.0611394156
O180       O    0.4616101433    0.4601958619    0.1318995318
O181       O    0.4085426788    0.4079171968    0.0568447739
Zr182     Zr    0.5414603943    0.5421835858    0.0611385489
O183       O    0.5385233937    0.5436911765    0.1312115439
O184       O    0.5945904359    0.5930431051    0.0552079971
Zr185     Zr    0.5299113552    0.4720024721    0.0092149800
Zr186     Zr    0.4735329060    0.5283803994    0.0028672424
O187       O    0.4832429031    0.5186718051    0.0682330621
O188       O    0.5175791390    0.4843358871    0.0720990325
O189       O    0.4368647012    0.4699666530    0.0040916166
O190       O    0.5665823855    0.5304133929    0.0079909239
O191       O    0.4715004467    0.4353312282    0.0079913093
O192       O    0.5319466400    0.5650488178    0.0040912313
H193       H    0.4782274348    0.5236886218   -0.0921622010
H194       H    0.5978790432    0.5445533431    0.0089560722
H195       H    0.4743199685    0.5275906364    0.0985138668
H196       H    0.4573606047    0.4040346211    0.0089578736
H197       H    0.6145385827    0.5926540470   -0.0366934608
H198       H    0.5907531830    0.6118388001    0.0387281771
H199       H    0.5321119477    0.5184383711    0.1426307856
H200       H    0.4637651413    0.4837461773    0.1437003000
H201       H    0.3906817370    0.4111804073    0.0376860752
H202       H    0.4082893851    0.3888821688   -0.0297148205
H203       H    0.4917599824    0.4637071576   -0.1271320096
H204       H    0.5245287756    0.5324148181   -0.1333591532
H205       H    0.4364791869    0.4401082219    0.1424661095
H206       H    0.4021336768    0.3978171342   -0.0782214896
H207       H    0.5679486896    0.5606040135   -0.1300392778
H208       H    0.6021034998    0.6038664751    0.0854157241
O209       O    0.4117158732    0.9452654811   -0.0738280305
O210       O    0.4228875586    0.9008312249   -0.0252367621
C211       C    0.4055064977    0.9090398452   -0.0609945040
O212       O    0.5843553967    1.0469655438   -0.0795879145
O213       O    0.5750749537    1.0951619515   -0.0361903938
C214       C    0.5910097585    1.0840738418   -0.0708718224
O215       O    0.5335077009    0.9452754845   -0.0738641381
O216       O    0.4779067676    0.9008357692   -0.0252524552
C217       C    0.5034922634    0.9090480292   -0.0610202339
O218       O    0.4625635690    1.0469555404   -0.0795518069
O219       O    0.5200557446    1.0951574072   -0.0361747007
C220       C    0.4930239929    1.0840656577   -0.0708460925
Zr221     Zr    0.4577415219    0.9972417341   -0.0490487971
O222       O    0.4596353434    0.9943927032   -0.1186136972
O223       O    0.4081173624    1.0021764905   -0.0478023728
Zr224     Zr    0.5394658200    0.9972485599   -0.0490702569
O225       O    0.5351778918    0.9889334847   -0.1191714495
O226       O    0.5942886872    1.0037998028   -0.0437249632
O227       O    0.4812471154    0.9625360041   -0.0561537493
O228       O    0.5155883147    1.0312148014   -0.0600194377
O229       O    0.4659760910    1.0537340133    0.0859402062
O230       O    0.5215741983    1.0981680770    0.0373288414
C231       C    0.4959915286    1.0899614686    0.0730963019
O232       O    0.5369202230    0.9520539574    0.0916278750
O233       O    0.4794252213    0.9038464390    0.0482510869
C234       C    0.5064597991    0.9149438401    0.0829221606
O235       O    0.5877679188    1.0537440167    0.0859040986
O236       O    0.5765934074    1.0981726213    0.0373131483
C237       C    0.5939772942    1.0899696527    0.0730705720
O238       O    0.4151283953    0.9520439541    0.0916639826
O239       O    0.4244060123    0.9038418947    0.0482667800
C240       C    0.4084740334    0.9149356561    0.0829478904
Zr241     Zr    0.4600151459    1.0017552863    0.0611466431
O242       O    0.4597656941    0.9996177577    0.1319065453
O243       O    0.4074798345    1.0004024378    0.0568650640
Zr244     Zr    0.5417394441    1.0017621121    0.0611251833
O245       O    0.5432569826    1.0062069885    0.1311983754
O246       O    0.5925950544    0.9994956105    0.0551815212
Zr247     Zr    0.4715485965    0.9431211066    0.0092116713
Zr248     Zr    0.5279351954    1.0558883912    0.0028643968
O249       O    0.5182338506    1.0364678421    0.0682301355
O250       O    0.4838926513    0.9677890448    0.0720958239
O251       O    0.4695224377    1.0341368757    0.0041006606
O252       O    0.5299585282    0.9648669705    0.0079757256
O253       O    0.4348816855    0.9648590039    0.0080000688
O254       O    0.5645992805    1.0341448423    0.0040763174
H255       H    0.5232296974    1.0465012947   -0.0921650840
H256       H    0.5440958873    0.9477104527    0.0089350791
H257       H    0.5271583098    1.0543112953    0.0985110134
H258       H    0.4035850307    0.9476987296    0.0089722870
H259       H    0.5921912280    0.9791573490   -0.0367224829
H260       H    0.6113900030    1.0221313756    0.0386999097
H261       H    0.5180050234    0.9873625048    0.1426215288
H262       H    0.4833187046    1.0210161752    0.1437041627
H263       H    0.4107426337    1.0215280615    0.0377082914
H264       H    0.3884319835    0.9816182093   -0.0296921760
H265       H    0.4632385596    0.9729783285   -0.1271293418
H266       H    0.5319455722    1.0089248084   -0.1333691223
H267       H    0.4396811834    1.0046597080    0.1424788404
H268       H    0.3973615489    0.9967105148   -0.0781991325
H269       H    0.5601319271    0.9936955282   -0.1300583311
H270       H    0.6034223003    1.0028069458    0.0853869511
O271       O    0.2659821118    0.4649936041    0.7955007192
O272       O    0.1988941172    0.4652610375    0.7044987546
O273       O    0.2659815180    0.4649960595    0.7044944620
O274       O    0.1988898175    0.4652585949    0.7955050101
O275       O    0.2305382436    0.5281703837    0.7955061079
O276       O    0.2976298911    0.5279077455    0.7045021917
O277       O    0.2305425432    0.5281728264    0.7044998524
O278       O    0.2976305378    0.5279053930    0.7955018170
Cu279     Cu    0.2295484737    0.4593862513    0.7499967590
Cu280     Cu    0.2669761813    0.5337801791    0.7500038126
C281       C    0.2916990794    0.4964108937    0.8089186678
C282       C    0.2048255755    0.4967555368    0.6910819038
C283       C    0.2916974947    0.4964106989    0.6910841348
C284       C    0.2048271603    0.4967557316    0.8089164368
O285       O    0.4740057888    0.7042814297    0.7954971254
O286       O    0.4737405684    0.7713703543    0.7044951535
O287       O    0.4740081447    0.7042842812    0.7044908681
O288       O    0.4737381865    0.7713723894    0.7955014090
O289       O    0.5366499912    0.8030217109    0.7955024261
O290       O    0.5369198466    0.7359335521    0.7044985171
O291       O    0.5366523731    0.8030196757    0.7044961706
O292       O    0.5369175936    0.7359307512    0.7954981425
Cu293     Cu    0.4681320955    0.7349392362    0.7499931689
Cu294     Cu    0.5425260664    0.7723618693    0.7500001271
C295       C    0.5055016279    0.7102140328    0.8089150346
C296       C    0.5051565341    0.7970870726    0.6910782614
C297       C    0.5055013112    0.7102151497    0.6910805017
C298       C    0.5051568508    0.7970859557    0.8089127943
O299       O    0.2967279414    0.7724154627    0.7954985869
O300       O    0.2294982882    0.7051871809    0.7044969655
O301       O    0.2967244499    0.7724146305    0.7044923297
O302       O    0.2294968827    0.7051831095    0.7955032210
O303       O    0.1980433796    0.7366356821    0.7955043686
O304       O    0.2652709970    0.8038671506    0.7045001092
O305       O    0.1980447851    0.7366397536    0.7044981132
O306       O    0.2652744383    0.8038680353    0.7954997346
Cu307     Cu    0.2659818978    0.7359295506    0.7499947937
Cu308     Cu    0.2287908286    0.7731256656    0.7500019063
C309       C    0.2909140009    0.7980551869    0.8089165098
C310       C    0.2038587256    0.7110000294    0.6910801903
C311       C    0.2909120467    0.7980533057    0.6910819768
C312       C    0.2038606797    0.7110019105    0.8089147232
O313       O    0.7708263892    0.4742765423    0.7954979384
O314       O    0.7034717685    0.4740110353    0.7044961058
O315       O    0.7708256748    0.4742789825    0.7044916812
O316       O    0.7034675701    0.4740085690    0.7955023613
O317       O    0.7347419643    0.5369203533    0.7955034582
O318       O    0.8021000167    0.5371906639    0.7044994100
O319       O    0.7347461627    0.5369228195    0.7044972027
O320       O    0.8021007834    0.5371883266    0.7954990353
Cu321     Cu    0.7342935646    0.4684027076    0.7499940443
Cu322     Cu    0.7712789873    0.5427966543    0.7500010968
C323       C    0.7963956509    0.5057724134    0.8089158671
C324       C    0.7091769010    0.5054269484    0.6910792740
C325       C    0.7963939335    0.5057722059    0.6910813341
C326       C    0.7091786184    0.5054271560    0.8089138070
O327       O    0.4647252333    0.1998124862    0.7954993291
O328       O    0.4649928583    0.2671681881    0.7044977785
O329       O    0.4647276033    0.1998156410    0.7044930718
O330       O    0.4649905010    0.2671699393    0.7955040340
O331       O    0.5279023086    0.2984452989    0.7955050503
O332       O    0.5276393081    0.2310909507    0.7045007200
O333       O    0.5279046659    0.2984435476    0.7044987948
O334       O    0.5276370409    0.2310878457    0.7955003453
Cu335     Cu    0.4591179746    0.2306378136    0.7499955833
Cu336     Cu    0.5335119245    0.2676182202    0.7500025405
C337       C    0.4961425040    0.2055187662    0.8089171758
C338       C    0.4964873952    0.2927372676    0.6910809481
C339       C    0.4961421987    0.2055202925    0.6910826429
C340       C    0.4964877005    0.2927357413    0.8089154810
O341       O    0.8010156256    0.2681262088    0.7954983519
O342       O    0.7337862210    0.2008981067    0.7044964406
O343       O    0.8010123483    0.2681255908    0.7044920946
O344       O    0.7337846014    0.2008938211    0.7955026961
O345       O    0.7023310499    0.2323463455    0.7955038437
O346       O    0.7695588471    0.2995780625    0.7044998742
O347       O    0.7023326696    0.2323506311    0.7044975882
O348       O    0.7695620742    0.2995787331    0.7954994995
Cu349     Cu    0.7702697107    0.2316403910    0.7499944138
Cu350     Cu    0.7330785844    0.2688364489    0.7500015263
C351       C    0.7952016243    0.2937658823    0.8089163175
C352       C    0.7081466709    0.2067109576    0.6910796226
C353       C    0.7951999475    0.2937642785    0.6910817846
C354       C    0.7081483477    0.2067125614    0.8089141556
O355       O    0.0566484466    0.5901984740    0.5738241417
O356       O    0.1010827184    0.5790267839    0.5252328880
C357       C    0.0928740903    0.5964078199    0.5609906463
O358       O   -0.0450518087    0.4175590169    0.5795837443
O359       O   -0.0932481488    0.4268395747    0.5361862040
C360       C   -0.0821600950    0.4109047104    0.5708676198
O361       O    0.0566382872    0.4684066059    0.5738600971
O362       O    0.1010781036    0.5240075567    0.5252485124
C363       C    0.0928657808    0.4984220218    0.5610162537
O364       O   -0.0450416494    0.5393508850    0.5795477888
O365       O   -0.0932435340    0.4818588020    0.5361705796
C366       C   -0.0821517854    0.5088905086    0.5708420124
Zr367     Zr    0.0046721746    0.5441729052    0.5490448172
O368       O    0.0075211384    0.5422789992    0.6186097167
O369       O   -0.0002625154    0.5937970888    0.5477984517
Zr370     Zr    0.0046652441    0.4624485799    0.5490661749
O371       O    0.0129802579    0.4667364181    0.6191673782
O372       O   -0.0018860619    0.4076257092    0.5437208084
O373       O    0.0393778565    0.5206672512    0.5561497624
O374       O   -0.0293009656    0.4863261241    0.5600153635
O375       O   -0.0518199727    0.5359385611    0.4140557671
O376       O   -0.0962541374    0.4803404363    0.4626670337
C377       C   -0.0880474662    0.5059231453    0.4268996104
O378       O    0.0498599639    0.4649942820    0.4083680753
O379       O    0.0980675002    0.5224891910    0.4517449665
C380       C    0.0869701000    0.4954546585    0.4170738518
O381       O   -0.0518301320    0.4141466931    0.4140917225
O382       O   -0.0962587522    0.4253212091    0.4626826580
C383       C   -0.0880557757    0.4079373471    0.4269252179
O384       O    0.0498701233    0.5867861501    0.4083321199
O385       O    0.0980721150    0.5775084183    0.4517293421
C386       C    0.0869784095    0.5934404566    0.4170482444
Zr387     Zr    0.0001587221    0.5418994131    0.4388493712
O388       O    0.0022963152    0.5421489438    0.3680894707
O389       O    0.0015116335    0.5944347353    0.4431310168
Zr390     Zr    0.0001517916    0.4601750878    0.4388707289
O391       O   -0.0042930211    0.4586576353    0.3687975320
O392       O    0.0024182218    0.4093194509    0.4448143289
Zr393     Zr    0.0587928200    0.5303658237    0.4907843665
Zr394     Zr   -0.0539745054    0.4739793433    0.4971314977
O395       O   -0.0345538903    0.4836807418    0.4317657837
O396       O    0.0341249318    0.5180218689    0.4279001826
O397       O   -0.0322229211    0.5323920939    0.4958953209
O398       O    0.0370468873    0.4719558991    0.4920202251
O399       O    0.0370549757    0.5670327733    0.4919960008
O400       O   -0.0322310095    0.4373152196    0.4959195453
H401       H   -0.0445874931    0.4786847214    0.5921609904
H402       H    0.0542033822    0.4578185145    0.4910608651
H403       H   -0.0523973213    0.4747563374    0.4014848830
H404       H    0.0542152852    0.5983294176    0.4910238327
H405       H    0.0227563929    0.4097231456    0.5367183466
H406       H   -0.0202175749    0.3905245061    0.4612959023
H407       H    0.0145514993    0.4839095919    0.3573744223
H408       H   -0.0191021146    0.5185959664    0.3562918100
H409       H   -0.0196140050    0.5911719400    0.4622877717
H410       H    0.0202958007    0.6134824688    0.5296882928
H411       H    0.0289354936    0.5386757446    0.6271253707
H412       H   -0.0070110682    0.4699687480    0.6333650421
H413       H   -0.0027455981    0.5622334797    0.3575171975
H414       H    0.0052034443    0.6045528638    0.5781952283
H415       H    0.0082181740    0.4417823681    0.6300542255
H416       H   -0.0008930985    0.3984922405    0.4146088834
O417       O    0.5897362845    0.5339765760    0.5738398181
O418       O    0.5785658254    0.4783733408    0.5252399820
C419       C    0.5959438440    0.5039609928    0.5610031588
O420       O    0.4170976325    0.4630176948    0.5795694594
O421       O    0.4263896505    0.5205043733    0.5361805199
C422       C    0.4104480855    0.4934738898    0.5708565029
O423       O    0.4679379090    0.4121777477    0.5738452936
O424       O    0.5235436585    0.4233509946    0.5252418372
C425       C    0.4979528109    0.4059697313    0.5610042441
O426       O    0.5388960080    0.5848165232    0.5795639839
O427       O    0.4814118174    0.5755267195    0.5361786648
C428       C    0.5084391187    0.5914651513    0.5708554176
Zr429     Zr    0.5437171157    0.5399269423    0.5490557447
O430       O    0.5418134344    0.5351741468    0.6186197980
O431       O    0.5933446412    0.5944932204    0.5478224416
Zr432     Zr    0.4619884242    0.4581980603    0.5490566499
O433       O    0.4662661645    0.4541614660    0.6191578422
O434       O    0.4071640418    0.4099198679    0.5436984160
O435       O    0.5202055639    0.4817094999    0.5561502867
O436       O    0.4858693754    0.5160454660    0.5600162381
O437       O    0.5355065166    0.5882050228    0.4140719939
O438       O    0.4799035926    0.5770289503    0.4626751322
C439       C    0.5054916147    0.5944130391    0.4269130434
O440       O    0.4645484176    0.4155662472    0.4083533035
O441       O    0.5220354338    0.4248532254    0.4517383046
C442       C    0.4950053069    0.4089176191    0.4170618699
O443       O    0.4137081411    0.4664061944    0.4140774694
O444       O    0.4248814257    0.5220066041    0.4626769873
C445       C    0.4075005816    0.4964217776    0.4269141287
O446       O    0.5863467931    0.5373650756    0.4083478280
O447       O    0.5770576007    0.4798755716    0.4517364494
C448       C    0.5929963401    0.5069088806    0.4170607846
Zr449     Zr    0.5414588269    0.5421818846    0.4388603195
O450       O    0.5417176766    0.5403034169    0.3681002042
O451       O    0.5939962340    0.5933710214    0.4431549370
Zr452     Zr    0.4597301354    0.4604530026    0.4388612247
O453       O    0.4582225140    0.4633899627    0.3687882282
O454       O    0.4088707414    0.4073228567    0.4447918016
Zr455     Zr    0.5299113985    0.4720023821    0.4907847905
Zr456     Zr    0.4735330271    0.5283803883    0.4971324969
O457       O    0.4832416873    0.5186704450    0.4317666826
O458       O    0.5175778758    0.4843344789    0.4279007312
O459       O    0.5319467536    0.5650487840    0.4959081063
O460       O    0.4715004976    0.4353311609    0.4920088630
O461       O    0.5665824513    0.5304133107    0.4920084328
O462       O    0.4368647998    0.4699666342    0.4959085365
H463       H    0.4782248574    0.5236859298    0.5921619430
H464       H    0.4573606654    0.4040345202    0.4910437302
H465       H    0.4743227806    0.5275932986    0.4014858730
H466       H    0.5978790755    0.5445532705    0.4910418625
H467       H    0.4092599167    0.3873748007    0.5366932698
H468       H    0.3900749764    0.4111600094    0.4612716189
H469       H    0.4834753568    0.4698015143    0.3573689842
H470       H    0.5181673033    0.5381483017    0.3562994361
H471       H    0.5907329271    0.6112319027    0.4623136265
H472       H    0.6130313290    0.5936244409    0.5297145321
H473       H    0.5382065661    0.5101537363    0.6271317609
H474       H    0.4694988773    0.4773846907    0.6333589185
H475       H    0.5618052448    0.5654343999    0.3575336145
H476       H    0.6040963152    0.5997801036    0.5782211976
H477       H    0.4413098210    0.4339647563    0.6300390642
H478       H    0.3980473737    0.3998097488    0.4145840781
O479       O    0.5335051785    0.9452747189    0.5738527968
O480       O    0.4779067574    0.9008348884    0.5252444966
C481       C    0.5034889509    0.9090470978    0.5610131150
O482       O    0.4625610665    1.0469545421    0.5795516156
O483       O    0.5200559722    1.0951564763    0.5361711432
C484       C    0.4930209611    1.0840648138    0.5708416819
O485       O    0.4117132313    0.9452644798    0.5738274273
O486       O    0.4228875199    0.9008302883    0.5252324176
C487       C    0.4055032261    0.9090389961    0.5609893844
O488       O    0.5843530136    1.0469647812    0.5795769851
O489       O    0.5750752097    1.0951610765    0.5361832223
C490       C    0.5910066859    1.0840729156    0.5708654124
Zr491     Zr    0.5394645401    0.9972476293    0.5490636617
O492       O    0.5347020700    0.9943980816    0.6186268703
O493       O    0.5940284667    1.0021910433    0.5478435530
Zr494     Zr    0.4577402760    0.9972408721    0.5490438694
O495       O    0.4536932713    0.9889258535    0.6191450891
O496       O    0.4094662961    1.0037835445    0.5436725820
O497       O    0.4812454632    0.9625351115    0.5561478472
O498       O    0.5155867566    1.0312139108    0.5600138137
O499       O    0.5877649765    1.0537431675    0.4140849994
O500       O    0.5765878619    1.0981717074    0.4626796909
C501       C    0.5939749817    1.0899686512    0.4269230422
O502       O    0.4151251942    0.9520428661    0.4083354416
O503       O    0.4244001721    0.9038409192    0.4517288862
C504       C    0.4084715219    0.9149347318    0.4170470142
O505       O    0.4659730294    1.0537329284    0.4140596299
O506       O    0.5215686245    1.0981671072    0.4626676119
C507       C    0.4959892569    1.0899605495    0.4268993116
O508       O    0.5369171414    0.9520531052    0.4083608111
O509       O    0.4794194096    0.9038455194    0.4517409653
C510       C    0.5064572467    0.9149428335    0.4170707447
Zr511     Zr    0.5417351059    1.0017611236    0.4388682391
O512       O    0.5398662864    0.9996234234    0.3681079196
O513       O    0.5929206033    1.0004168968    0.4431759904
Zr514     Zr    0.4600108418    1.0017543664    0.4388484468
O515       O    0.4629578308    1.0061993250    0.3687756335
O516       O    0.4068826198    0.9994792266    0.4447658556
Zr517     Zr    0.4715457272    0.9431201797    0.4907823477
Zr518     Zr    0.5279324806    1.0558874677    0.4971300790
O519       O    0.5182299187    1.0364668842    0.4317642613
O520       O    0.4838886253    0.9677880849    0.4278982948
O521       O    0.5645965032    1.0341438526    0.4959177231
O522       O    0.4348788786    0.9648581431    0.4919943854
O523       O    0.5299556561    0.9648659788    0.4920180343
O524       O    0.4695197258    1.0341360169    0.4958940742
H525       H    0.5232240800    1.0465004206    0.5921595209
H526       H    0.4035821905    0.9476978491    0.4910234955
H527       H    0.5271584825    1.0543103219    0.4014834567
H528       H    0.5440930014    0.9477094797    0.4910572135
H529       H    0.3869206719    0.9791393878    0.5366648410
H530       H    0.4107198481    1.0221137572    0.4612437836
H531       H    0.4693684586    0.9873574665    0.3573603950
H532       H    0.5377153557    1.0210196987    0.3563039015
H533       H    0.6107802260    1.0215437436    0.4623365326
H534       H    0.5931599050    0.9816343164    0.5297380221
H535       H    0.5096794632    0.9729813325    0.6271352034
H536       H    0.4769154913    1.0089193832    0.6333495196
H537       H    0.5649978836    1.0046691258    0.3575470568
H538       H    0.5993102267    0.9967264163    0.5782443382
H539       H    0.4334967389    0.9936841506    0.6300205946
H540       H    0.3993744897    1.0027890223    0.4145558116
C1011      C    0.6372181171    0.1651465498    0.6651194133
C1012      C    0.6791861086    0.1763911086    0.6613590185
C1013      C    0.6915446699    0.1566364953    0.6272121227
C1014      C    0.6619352397    0.1256373233    0.5968256217
C1015      C    0.6199672482    0.1143927645    0.6005860165
C1016      C    0.6076086869    0.1341473778    0.6347329123
H1017      H    0.6280695718    0.1797700948    0.6903969856
H1018      H    0.7226096192    0.1649590526    0.6244276112
H1019      H    0.6710837850    0.1110137784    0.5715480495
H1020      H    0.5765437376    0.1258248205    0.6375174239
C1001      C    0.8657133860    0.3282853295    0.6624153341
C1002      C    0.8255205405    0.3227252096    0.6613609266
C1003      C    0.8163270807    0.3467743746    0.6299202947
C1004      C    0.8473264665    0.3763836595    0.5995340703
C1005      C    0.8875193120    0.3819437793    0.6005884778
C1006      C    0.8967127717    0.3578946144    0.6320291097
H1007      H    0.8725189341    0.3104827008    0.6856895681
H1008      H    0.7865761884    0.3426595547    0.6291388310
H1009      H    0.8405209184    0.3941862881    0.5762598362
H1010      H    0.9264636641    0.3620094343    0.6328105734
C991       C    0.4769279554    0.1684263090    0.6151794889
C992       C    0.4953706706    0.1754981270    0.6613606899
C993       C    0.5130242951    0.1518643712    0.6771433634
C994       C    0.5122352044    0.1211587973    0.6467448359
C995       C    0.4937924892    0.1140869793    0.6005636349
C996       C    0.4761388647    0.1377207351    0.5847809614
H997       H    0.4638596879    0.1859214269    0.6034962111
H998       H    0.5266760861    0.1570981578    0.7113270237
H999       H    0.5253034719    0.1036636794    0.6584281136
H1000      H    0.4624870737    0.1324869485    0.5505973010
C981       C    0.4847837246    0.3489307752    0.6743584760
C982       C    0.4968464188    0.3204789701    0.6592124440
C983       C    0.5092827971    0.3209016943    0.6108965641
C984       C    0.5096564814    0.3497762237    0.5777267162
C985       C    0.4975937873    0.3782280288    0.5928727481
C986       C    0.4851574089    0.3778053046    0.6411886281
H987       H    0.4755775744    0.3486178495    0.7101247767
H988       H    0.5182119540    0.2998417826    0.5996839960
H989       H    0.5188626316    0.3500891494    0.5419604155
H990       H    0.4762282520    0.3988652162    0.6524011961
C971       C    0.6851631622    0.5426006242    0.6431475215
C972       C    0.6814350990    0.5050677932    0.6592109669
C973       C    0.6488323093    0.4671611396    0.6421046619
C974       C    0.6199575828    0.4667873171    0.6089349114
C975       C    0.6236856461    0.5043201481    0.5928714660
C976       C    0.6562884357    0.5422268016    0.6099777710
H977       H    0.7092976948    0.5706613937    0.6558106304
H978       H    0.6460717784    0.4393782718    0.6539942257
H979       H    0.5958230502    0.4387265476    0.5962718025
H980       H    0.6590489667    0.5700096694    0.5980882072
C961       C    0.8217238475    0.5056948749    0.6106228352
C962       C    0.8264157194    0.5065430063    0.6613598690
C963       C    0.8618129460    0.5081794886    0.6816987070
C964       C    0.8925183006    0.5089678395    0.6513005113
C965       C    0.8878264286    0.5081197081    0.6005634775
C966       C    0.8524292020    0.5064832258    0.5802246395
H967       H    0.7955207057    0.5044834530    0.5955668123
H968       H    0.8652869732    0.5088073242    0.7192547227
H969       H    0.9187214423    0.5101792614    0.6663565342
H970       H    0.8489551749    0.5058553902    0.5426686238
C951       C    0.3508615676    0.8189883539    0.6414951329
C952       C    0.3190352466    0.8252916392    0.6591543887
C953       C    0.3163813155    0.8598494362    0.6436949364
C954       C    0.3455537053    0.8881039479    0.6105762283
C955       C    0.3773800262    0.8818006626    0.5929169726
C956       C    0.3800339574    0.8472428656    0.6083764249
H957       H    0.3528261659    0.7934066081    0.6529391431
H958       H    0.2928235019    0.8645161992    0.6567657655
H959       H    0.3435891069    0.9136856938    0.5991322182
H960       H    0.4035917710    0.8425761026    0.5953055958
C941       C    0.1782090352    0.6467796691    0.6486158035
C942       C    0.1766209893    0.6828769259    0.6591537468
C943       C    0.1467783621    0.6898011815    0.6365733616
C944       C    0.1185237807    0.6606281802    0.6034550331
C945       C    0.1201118266    0.6245309233    0.5929170898
C946       C    0.1499544538    0.6176066678    0.6154974750
H947       H    0.2003003307    0.6416539215    0.6653311535
H948       H    0.1456019517    0.7165204618    0.6443727952
H949       H    0.0964324852    0.6657539278    0.5867396831
H950       H    0.1511308641    0.5908873874    0.6076980414
C931       C    0.4846751264    0.8467686401    0.6713804908
C932       C    0.5047473485    0.8245594216    0.6591633427
C933       C    0.5243949646    0.8308578668    0.6138285401
C934       C    0.5239703586    0.8593655303    0.5807108856
C935       C    0.5038981365    0.8815747488    0.5929280337
C936       C    0.4842505204    0.8752763037    0.6382628363
H937       H    0.4701307872    0.8421061548    0.7049400200
H938       H    0.5392529739    0.8144188815    0.6047840158
H939       H    0.5385146978    0.8640280157    0.5471513564
H940       H    0.4693925111    0.8917152889    0.6473073606
C921       C    0.5428821575    0.6790824772    0.6563145565
C922       C    0.5062287458    0.6808112984    0.6613114024
C923       C    0.4703168032    0.6525689717    0.6359648055
C924       C    0.4710582724    0.6225978238    0.6056213628
C925       C    0.5077116841    0.6208690026    0.6006245169
C926       C    0.5436236267    0.6491113293    0.6259711138
H927       H    0.5694663228    0.6999891346    0.6750776218
H928       H    0.4431849416    0.6538477452    0.6396626509
H929       H    0.4444741071    0.6016911664    0.5868582975
H930       H    0.5707554883    0.6478325558    0.6222732684
C911       C    0.3159853389    0.4939447946    0.6106051072
C912       C    0.3211017556    0.4956835050    0.6613141385
C913       C    0.3561892068    0.4966810048    0.6816793501
C914       C    0.3861602413    0.4959397941    0.6513355305
C915       C    0.3810438246    0.4942010837    0.6006264992
C916       C    0.3459563734    0.4932035840    0.5802612876
H917       H    0.2900115114    0.4932063857    0.5955295609
H918       H    0.3599774706    0.4979680236    0.7192146394
H919       H    0.4121340688    0.4966782030    0.6664110768
H920       H    0.3421681096    0.4919165651    0.5427259983
C901       C    0.1851230691    0.4990700662    0.6089826750
C902       C    0.1773533900    0.4971644513    0.6591669858
C903       C    0.1410759991    0.4956831644    0.6762333897
C904       C    0.1125682872    0.4961074924    0.6431154826
C905       C    0.1203379663    0.4980131073    0.5929311717
C906       C    0.1566153572    0.4994943942    0.5758647679
H907       H    0.2119777611    0.5001666032    0.5963491033
H908       H    0.1353237621    0.4942725881    0.7133801783
H909       H    0.0857135952    0.4950109553    0.6557490543
H910       H    0.1623675941    0.5009049704    0.5387179793
C891       C    0.6267392517    1.1550043647   -0.0981013394
C892       C    0.6199699800    1.1143938628   -0.1005923844
C893       C    0.6428097814    1.1047826997   -0.1334698784
C894       C    0.6724188545    1.1357820385   -0.1638563274
C895       C    0.6791881262    1.1763925403   -0.1613652824
C896       C    0.6563483248    1.1860037034   -0.1284877884
H897       H    0.6098318663    1.1621191217   -0.0737634542
H898       H    0.6377999134    1.0747226464   -0.1353147816
H899       H    0.6893262399    1.1286672814   -0.1881942126
H900       H    0.6613581928    1.2160637567   -0.1266428852
C881       C    0.4921835871    1.1478843307   -0.0803001126
C882       C    0.4937948336    1.1140867152   -0.1005664832
C883       C    0.4961944949    1.1109945966   -0.1512308289
C884       C    0.4969829097    1.1417000933   -0.1816288041
C885       C    0.4953716633    1.1754977087   -0.1613624335
C886       C    0.4929720020    1.1785898274   -0.1106980877
H887       H    0.4904072145    1.1501733016   -0.0427953371
H888       H    0.4973872097    1.0859776239   -0.1662335278
H889       H    0.4987592824    1.1394111224   -0.2191335795
H890       H    0.4917792871    1.2036068001   -0.0956953889
C871       C    0.5146736040    0.8930103387   -0.1417424941
C872       C    0.5039007170    0.8815749658   -0.0929358465
C873       C    0.4935516701    0.8416316196   -0.0772470721
C874       C    0.4939755102    0.8131236462   -0.1103649454
C875       C    0.5047483971    0.8245590191   -0.1591715931
C876       C    0.5150974440    0.8645023653   -0.1748603674
H877       H    0.5223345867    0.9225787898   -0.1533562622
H878       H    0.4855772899    0.8331659331   -0.0411200685
H879       H    0.4863145274    0.7835551951   -0.0987511774
H880       H    0.5230718242    0.8729680518   -0.2109873711
C861       C    0.3905163417    0.8667938727   -0.1318884054
C862       C    0.3773833525    0.8818021311   -0.0929207780
C863       C    0.3350772600    0.8685557744   -0.0870713697
C864       C    0.3059041568    0.8403011594   -0.1201895888
C865       C    0.3190371461    0.8252929009   -0.1591572162
C866       C    0.3613432386    0.8385392576   -0.1650066245
H867       H    0.4218338388    0.8765996172   -0.1362184869
H868       H    0.3253549292    0.8796644147   -0.0582274852
H869       H    0.2745866598    0.8304954148   -0.1158595073
H870       H    0.3710655694    0.8274306173   -0.1938505090
C851       C    0.4612322217    0.3239114112   -0.1530096207
C852       C    0.4968467072    0.3204785619   -0.1592141726
C853       C    0.5328348418    0.3459200533   -0.1322485125
C854       C    0.5332084910    0.3747943941   -0.0990783003
C855       C    0.4975940056    0.3782272435   -0.0928737484
C856       C    0.4616058709    0.3527857520   -0.1198394085
H857       H    0.4345916546    0.3050780993   -0.1729712132
H858       H    0.5591976963    0.3433798756   -0.1368402464
H859       H    0.5598490582    0.3936277060   -0.0791167077
H860       H    0.4352430165    0.3553259297   -0.1152476746
C841       C    0.5102334984    0.6179777067   -0.1513048650
C842       C    0.5077118296    0.6208689529   -0.1006267012
C843       C    0.5044487503    0.6537309378   -0.0802926929
C844       C    0.5037073398    0.6837016766   -0.1106368485
C845       C    0.5062290086    0.6808104305   -0.1613150124
C846       C    0.5094920879    0.6479484455   -0.1816490207
H847       H    0.5126490246    0.5936513023   -0.1663573127
H848       H    0.5025821167    0.6558720679   -0.0427802526
H849       H    0.5012918135    0.7080280810   -0.0955844008
H850       H    0.5113587215    0.6458073154   -0.2191614610
C831       C    0.3860492617    0.4957141341   -0.1513435461
C832       C    0.3810447310    0.4942012788   -0.1006247492
C833       C    0.3460690922    0.4934296415   -0.0802497238
C834       C    0.3160979840    0.4941708595   -0.1105934953
C835       C    0.3211025147    0.4956837148   -0.1613122922
C836       C    0.3560781536    0.4964553522   -0.1816873176
H837       H    0.4119403191    0.4962853462   -0.1664263571
H838       H    0.3423636494    0.4923098069   -0.0427072057
H839       H    0.2902069266    0.4935996475   -0.0955106843
H840       H    0.3597835963    0.4975751867   -0.2192298356
C821       C    0.6582169884    0.5421447212   -0.1068645826
C822       C    0.6236870210    0.5043204521   -0.0928750412
C823       C    0.6180313700    0.4668699663   -0.1120557757
C824       C    0.6469056864    0.4672437494   -0.1452260515
C825       C    0.6814356538    0.5050680184   -0.1592155930
C826       C    0.6870913048    0.5425185043   -0.1400348585
H827       H    0.6624036391    0.5698678081   -0.0926658570
H828       H    0.5924722318    0.4388713916   -0.1017013738
H829       H    0.6427190356    0.4395206624   -0.1594247771
H830       H    0.7126504430    0.5705170790   -0.1503892603
C811       C   -0.1328842423    0.3335088520   -0.1682272724
C812       C   -0.1744781605    0.3227268200   -0.1613627972
C813       C   -0.1850728855    0.3415542649   -0.1241118799
C814       C   -0.1540736922    0.3711637417   -0.0937254376
C815       C   -0.1124797740    0.3819457736   -0.1005899127
C816       C   -0.1018850490    0.3631183287   -0.1378408301
H817       H   -0.1250413940    0.3195716525   -0.1958026268
H818       H   -0.2158608912    0.3335740391   -0.1190296409
H819       H   -0.1619165405    0.3851009412   -0.0661500832
H820       H   -0.0710970433    0.3710985546   -0.1429230691
C801       C    0.1551095194    0.4965022006   -0.0758304417
C802       C    0.1203392060    0.4980148274   -0.0929324456
C803       C    0.1140764229    0.4991026159   -0.1431521404
C804       C    0.1425839532    0.4986777777   -0.1762698314
C805       C    0.1773542666    0.4971651509   -0.1591678275
C806       C    0.1836170497    0.4960773624   -0.1089481326
H807       H    0.1597456057    0.4956969545   -0.0386548234
H808       H    0.0883393622    0.5002222913   -0.1558125722
H809       H    0.1379478669    0.4994830238   -0.2134454496
H810       H    0.2093541104    0.4949576870   -0.0962877008
C791       C   -0.1097083027    0.5454356654   -0.1152084728
C792       C   -0.1121723558    0.5081212500   -0.1005663303
C793       C   -0.1453418886    0.4700180281   -0.1163226560
C794       C   -0.1760473683    0.4692292216   -0.1467211243
C795       C   -0.1735833151    0.5065436369   -0.1613632669
C796       C   -0.1404137823    0.5446468588   -0.1456069411
H797       H   -0.0851542329    0.5736419465   -0.1035446992
H798       H   -0.1471668217    0.4423968246   -0.1054850928
H799       H   -0.2006014380    0.4410229404   -0.1583848979
H800       H   -0.1385888493    0.5722680623   -0.1564445044
C781       C    0.1495042710    0.6644326073   -0.0768693578
C782       C    0.1201130342    0.6245334308   -0.0929206722
C783       C    0.1189763777    0.6138067832   -0.1420905261
C784       C    0.1472309580    0.6429793121   -0.1752090656
C785       C    0.1766221949    0.6828784885   -0.1591577512
C786       C    0.1777588514    0.6936051362   -0.1099878973
H787       H    0.1503456920    0.6723731127   -0.0404708945
H788       H    0.0972210526    0.5842732152   -0.1539732080
H789       H    0.1463895370    0.6350388067   -0.2116075289
H790       H    0.1995141764    0.7231387042   -0.0981052154
C771       C    0.6516343546    0.1406515866    0.1815587904
C772       C    0.6795156735    0.1800742340    0.1628343223
C773       C    0.6780867478    0.1886220001    0.1133517608
C774       C    0.6487765034    0.1577471188    0.0825936673
C775       C    0.6208951845    0.1183244714    0.1013181354
C776       C    0.6223241102    0.1097767053    0.1508006969
H777       H    0.6526921307    0.1343240195    0.2181887385
H778       H    0.6987243557    0.2178027741    0.0994904101
H779       H    0.6477187273    0.1640746859    0.0459637192
H780       H    0.6016865023    0.0805959313    0.1646620476
C761       C    0.6543435256    0.1888226143    0.3672224415
C762       C    0.6795141770    0.1800731293    0.3371624724
C763       C    0.6753740620    0.1404485431    0.3378597613
C764       C    0.6460632956    0.1095734419    0.3686170193
C765       C    0.6208926441    0.1183229269    0.3986769883
C766       C    0.6250327591    0.1579475131    0.3979796994
H767       H    0.6574082860    0.2181551002    0.3667062666
H768       H    0.6940051577    0.1339709514    0.3156095011
H769       H    0.6429985351    0.0802409560    0.3691331941
H770       H    0.6064016635    0.1644251048    0.4202299596
C751       C    0.8135321622    0.3485474557    0.1340079657
C752       C    0.8218407991    0.3223997768    0.1628342977
C753       C    0.8610244034    0.3255627828    0.1609031733
C754       C    0.8918993708    0.3548734675    0.1301457169
C755       C    0.8835907339    0.3810211464    0.1013193849
C756       C    0.8444071296    0.3778581405    0.1032505093
H757       H    0.7845261175    0.3462060098    0.1354374993
H758       H    0.8671756670    0.3062084639    0.1822402606
H759       H    0.9209054156    0.3572149135    0.1287161832
H760       H    0.8382558661    0.3972124593    0.0819134219
C741       C    0.8544720670    0.3591514207    0.3176671076
C742       C    0.8218397731    0.3223986133    0.3371621133
C743       C    0.8200823762    0.3149562292    0.3874150513
C744       C    0.8509572732    0.3442666524    0.4181729836
C745       C    0.8835895671    0.3810194598    0.3986779779
C746       C    0.8853469641    0.3884618439    0.3484250399
H747       H    0.8557729972    0.3646607180    0.2804668807
H748       H    0.7959280126    0.2877516962    0.4018467756
H749       H    0.8496563430    0.3387573550    0.4553732105
H750       H    0.9095013277    0.4156663768    0.3339933156
C731       C    0.5158326952    0.1549837871    0.1784404256
C732       C    0.4987237005    0.1791600143    0.1628551129
C733       C    0.4806782350    0.1727628223    0.1165043463
C734       C    0.4797417642    0.1421894032    0.0857388924
C735       C    0.4968507588    0.1180131761    0.1013242051
C736       C    0.5148962243    0.1244103680    0.1476749717
H737       H    0.5291910268    0.1597193708    0.2127520320
H738       H    0.4680136469    0.1906577773    0.1049666863
H739       H    0.4663834326    0.1374538196    0.0514272859
H740       H    0.5275608124    0.1065154131    0.1592126316
C721       C    0.5053860930    0.3221358830    0.1154224793
C722       C    0.4987774528    0.3211882582    0.1658050905
C723       C    0.4908579487    0.3507254841    0.1873927339
C724       C    0.4895470850    0.3812103348    0.1585977661
C725       C    0.4961557253    0.3821579595    0.1082151550
C726       C    0.5040752293    0.3526207336    0.0866275116
H727       H    0.5112485830    0.3002706638    0.0994420160
H728       H    0.4859660061    0.3500249904    0.2246864467
H729       H    0.4836845950    0.4030755540    0.1745782294
H730       H    0.5089671720    0.3533212274    0.0493337987
C711       C    0.4747060100    0.1678243612    0.3797473076
C712       C    0.4987229255    0.1791591531    0.3371435273
C713       C    0.5218028424    0.1599200227    0.3253046501
C714       C    0.5208658437    0.1293461003    0.3560695530
C715       C    0.4968489282    0.1180113084    0.3986733332
C716       C    0.4737690113    0.1372504388    0.4105122105
H717       H    0.4576208767    0.1820663149    0.3885111518
H718       H    0.5395808083    0.1683093865    0.2937691087
H719       H    0.5379509770    0.1151041466    0.3473057087
H720       H    0.4559910454    0.1288610750    0.4420477518
C701       C    0.4826141859    0.3115416933    0.3815760876
C702       C    0.4987772314    0.3211874832    0.3341934267
C703       C    0.5136295956    0.3613180430    0.3156061779
C704       C    0.5123189143    0.3918028129    0.3444015900
C705       C    0.4961558688    0.3821570230    0.3917842510
C706       C    0.4813035046    0.3420264632    0.4103714998
H707       H    0.4716195787    0.2818346555    0.3953354796
H708       H    0.5255938945    0.3684590924    0.2805331124
H709       H    0.5233135216    0.4215098507    0.3306421981
H710       H    0.4693392057    0.3348854138    0.4454445653
C691       C    0.6532090986    0.5046843381    0.0860826773
C692       C    0.6197564046    0.5057583698    0.1082148654
C693       C    0.6167887056    0.5055218790    0.1591422060
C694       C    0.6472737005    0.5042113564    0.1879373586
C695       C    0.6807263944    0.5031373246    0.1658051705
C696       C    0.6836940934    0.5033738155    0.1148778299
H697       H    0.6554059667    0.5048594027    0.0483832173
H698       H    0.5920270465    0.5063168660    0.1755259847
H699       H    0.6450768323    0.5040362917    0.2256368185
H700       H    0.7084557525    0.5025788285    0.0984940512
C681       C    0.8489281925    0.5045950414    0.0814040700
C682       C    0.8839020244    0.5050649239    0.1013233882
C683       C    0.8883021651    0.5045981285    0.1520077660
C684       C    0.8577284738    0.5036614507    0.1827728255
C685       C    0.8227546419    0.5031915682    0.1628535074
C686       C    0.8183545012    0.5036583636    0.1121691296
H687       H    0.8456709455    0.5049405912    0.0438844657
H688       H    0.9141898104    0.5049459191    0.1667535785
H689       H    0.8609857208    0.5033159009    0.2202924298
H690       H    0.7924668559    0.5033105730    0.0974233171
C671       C    0.6467509574    0.5032088164    0.3120834587
C672       C    0.6807255673    0.5031371737    0.3341933334
C673       C    0.6842153948    0.5043761507    0.3850985857
C674       C    0.6537306123    0.5056867706    0.4138939632
C675       C    0.6197560025    0.5057584133    0.3917840885
C676       C    0.6162661750    0.5045194363    0.3408788362
H677       H    0.6441675787    0.5022916516    0.2744003498
H678       H    0.7093633907    0.5043231602    0.4014658474
H679       H    0.6563139911    0.5066039354    0.4515770721
H680       H    0.5911181791    0.5045724268    0.3245115745
C661       C    0.8192906167    0.4659469906    0.3539058996
C662       C    0.8227538355    0.5031911370    0.3371418977
C663       C    0.8567906168    0.5413717009    0.3511430649
C664       C    0.8873641792    0.5423081185    0.3819082340
C665       C    0.8839009604    0.5050639721    0.3986722359
C666       C    0.8498641792    0.4668834081    0.3846710687
H667       H    0.7940945579    0.4376834563    0.3435413992
H668       H    0.8593551562    0.5689408940    0.3387348533
H669       H    0.9125602381    0.5705716528    0.3922727344
H670       H    0.8472996398    0.4393142150    0.3970792802
C651       C    0.3112008422    0.8518926675    0.1408201629
C652       C    0.3197475326    0.8240898536    0.1657726353
C653       C    0.3591021393    0.8278308270    0.1619664193
C654       C    0.3899100554    0.8593746143    0.1332077308
C655       C    0.3813633650    0.8871774282    0.1082552583
C656       C    0.3420087584    0.8834364548    0.1120614744
H657       H    0.2820682113    0.8491233756    0.1436377514
H658       H    0.3654296146    0.8072514013    0.1804360303
H659       H    0.4190426863    0.8621439062    0.1303901423
H660       H    0.3356812830    0.9040158805    0.0935918634
C641       C    0.3543709371    0.8951161863    0.3640752594
C642       C    0.3813611894    0.8871764883    0.3917396410
C643       C    0.3775437238    0.8476927976    0.3906451567
C644       C    0.3467360059    0.8161488048    0.3618862910
C645       C    0.3197457536    0.8240885027    0.3342219094
C646       C    0.3235632192    0.8635721935    0.3353163936
H647       H    0.3571968532    0.9243443729    0.3648854620
H648       H    0.3975216918    0.8418146118    0.4111221990
H649       H    0.3439100898    0.7869206181    0.3610760884
H650       H    0.3035852512    0.8694503792    0.3148393513
C631       C    0.1372266385    0.6753886489    0.1686611826
C632       C    0.1778251545    0.6821678428    0.1657744278
C633       C    0.1868796879    0.6581392921    0.1341288213
C634       C    0.1553357054    0.6273315475    0.1053699696
C635       C    0.1147371894    0.6205523537    0.1082567244
C636       C    0.1056826560    0.6445809044    0.1399023309
H637       H    0.1305239319    0.6931760176    0.1920871510
H638       H    0.2169308517    0.6631564669    0.1319910542
H639       H    0.1620384120    0.6095441788    0.0819440012
H640       H    0.0756314922    0.6395637296    0.1420400980
C621       C    0.1724463189    0.6420510795    0.3356201433
C622       C    0.1778240718    0.6821665823    0.3342236431
C623       C    0.1516580077    0.6914742226    0.3615858530
C624       C    0.1201141906    0.6606663600    0.3903445632
C625       C    0.1147364377    0.6205508572    0.3917410634
C626       C    0.1409025018    0.6112432169    0.3643788535
H627       H    0.1918160027    0.6351610081    0.3153650009
H628       H    0.1556377732    0.7211678698    0.3605530345
H629       H    0.1007445068    0.6675564314    0.4105997056
H630       H    0.1369227363    0.5815495697    0.3654116720
C611       C    0.5278867426    0.8369320579    0.1239796140
C612       C    0.5028467985    0.8233560546    0.1657518016
C613       C    0.4790609757    0.8415714070    0.1787727034
C614       C    0.4803150970    0.8733627628    0.1500214178
C615       C    0.5053550410    0.8869387661    0.1082492303
C616       C    0.5291408638    0.8687234136    0.0952283284
H617       H    0.5454944296    0.8234479658    0.1143407646
H618       H    0.4605257454    0.8315230741    0.2096927402
H619       H    0.4627074100    0.8868468548    0.1596602672
H620       H    0.5476760941    0.8787717465    0.0643082916
C601       C    0.4835378873    0.6095284289    0.1459738581
C602       C    0.5046752092    0.6217544024    0.1013690688
C603       C    0.5249263551    0.6636719061    0.0874786086
C604       C    0.5240401791    0.6933634363    0.1181929377
C605       C    0.5029028572    0.6811374628    0.1627977270
C606       C    0.4826517113    0.6392199591    0.1766881871
H607       H    0.4685467794    0.5784985885    0.1562564065
H608       H    0.5405727665    0.6727228548    0.0544618626
H609       H    0.5390312870    0.7243932767    0.1079103893
H610       H    0.4670052999    0.6301690104    0.2097049332
C591       C    0.5165157682    0.8282399264    0.3826644143
C592       C    0.5028459655    0.8233550388    0.3342408815
C593       C    0.4904296798    0.8502613224    0.3145685417
C594       C    0.4916831968    0.8820524936    0.3433197347
C595       C    0.5053529995    0.8869373811    0.3917432674
C596       C    0.5177692853    0.8600310975    0.4114156073
H597       H    0.5257070447    0.8083222878    0.3972270555
H598       H    0.4803109474    0.8466463975    0.2787249923
H599       H    0.4824919204    0.9019701321    0.3287570935
H600       H    0.5278880176    0.8636460224    0.4472591567
C581       C    0.4878380661    0.6762325979    0.3849913641
C582       C    0.5029026996    0.6811364706    0.3371995656
C583       C    0.5188536885    0.6563492240    0.3201225753
C584       C    0.5197400440    0.6266581047    0.3508373836
C585       C    0.5046754105    0.6217542320    0.3986291821
C586       C    0.4887244216    0.6465414786    0.4157061724
H587       H    0.4760301911    0.6945815987    0.3976327725
H588       H    0.5300049815    0.6599782687    0.2847467155
H589       H    0.5315479190    0.6083091040    0.3381959752
H590       H    0.4775731286    0.6429124340    0.4510820322
C571       C    0.3549804370    0.4979980897    0.1827819423
C572       C    0.3207766378    0.4990112388    0.1627998761
C573       C    0.3162639261    0.4991377723    0.1121031733
C574       C    0.3459550137    0.4982511567    0.0813885366
C575       C    0.3801588129    0.4972380075    0.1013706028
C576       C    0.3846715245    0.4971114740    0.1520673056
H577       H    0.3583210157    0.4979044220    0.2203106703
H578       H    0.2909462527    0.4998877057    0.0973109145
H579       H    0.3426144350    0.4983448243    0.0438598086
H580       H    0.4099891980    0.4963615406    0.1668595644
C561       C    0.1499400865    0.4986076484    0.0860766608
C562       C    0.1149756010    0.4965605342    0.1082525483
C563       C    0.1118024597    0.4957671920    0.1591795432
C564       C    0.1435938040    0.4970209638    0.1879306507
C565       C    0.1785582896    0.4990680780    0.1657547632
C566       C    0.1817314308    0.4998614203    0.1148277682
H567       H    0.1522890353    0.4991949277    0.0483774567
H568       H    0.0859217713    0.4942519002    0.1755956680
H569       H    0.1412448553    0.4964336845    0.2256298547
H570       H    0.2076121192    0.5013767120    0.0984116434
C551       C    0.3849679154    0.5354012591    0.3833482581
C552       C    0.3801598079    0.4972381124    0.3986308972
C553       C    0.3456605199    0.4599614785    0.3831988776
C554       C    0.3159693394    0.4608479912    0.3524842190
C555       C    0.3207774470    0.4990111379    0.3372015798
C556       C    0.3552767350    0.5362877718    0.3526335994
H557       H    0.4105063494    0.5629956505    0.3947719608
H558       H    0.3421004840    0.4317120733    0.3945105444
H559       H    0.2904309054    0.4332535999    0.3410605162
H560       H    0.3588367709    0.5645371771    0.3413219326
C541       C    0.1123268805    0.4594832605    0.3757260017
C542       C    0.1149760179    0.4965594083    0.3917461750
C543       C    0.1494165646    0.5348896324    0.3790151914
C544       C    0.1812079737    0.5361437086    0.3502640346
C545       C    0.1785588362    0.4990675607    0.3342438614
C546       C    0.1441182896    0.4607373367    0.3469748450
H547       H    0.0868319304    0.4311089388    0.3851502363
H548       H    0.1513785367    0.5623344783    0.3908728638
H549       H    0.2067029238    0.5645180302    0.3408398001
H550       H    0.1421563175    0.4332924908    0.3351171726
loop_
_geom_bond_atom_site_label_1
_geom_bond_atom_site_label_2
_geom_bond_distance
_geom_bond_site_symmetry_2
_ccdc_geom_bond_type
O302       C312 1.250       .   A
O302      Cu307 1.951       .   S
O303      Cu308 1.951       .   S
O303       C312 1.250       .   A
O300       C310 1.250       .   A
O300      Cu307 1.951       .   S
O301       C311 1.250       .   A
O301      Cu307 1.951       .   S
O306      Cu308 1.951       .   S
O306       C309 1.250       .   A
O304       C311 1.251       .   A
O304      Cu308 1.951       .   S
O305       C310 1.250       .   A
O305      Cu308 1.951       .   S
C626       H630 1.140       .   S
Zr179      O180 2.135       .   S
Zr179      O181 2.121       .   S
Zr179      O191 2.084       .   S
O167      Zr179 2.146       .   S
Zr179      O187 2.081       .   S
Zr179      O188 2.081       .   S
Zr179      O189 2.084       .   S
O176      Zr179 2.145       .   S
C805       C284 1.484   1_554   S
C804       C805 1.540       .   A
C805       C806 1.540       .   A
C573       C574 1.540       .   A
C573       H578 1.140       .   S
C572       C573 1.540       .   A
O315      Cu321 1.951       .   S
O315       C325 1.250       .   A
C694       H699 1.140       .   S
C693       H698 1.140       .   S
O29         C39 1.250       .   A
O29        Cu37 1.951       .   S
C691       H697 1.140       .   S
O22        Cu24 1.951       .   S
O22         C25 1.250       .   A
O373      Zr393 2.087       .   S
O362      Zr393 2.139       .   S
Zr393      O399 2.087       .   S
Zr393      O398 2.087       .   S
O385      Zr393 2.139       .   S
O379      Zr393 2.139       .   S
Zr393      O396 2.087       .   S
O356      Zr393 2.139       .   S
O20        Cu24 1.951       .   S
O20         C27 1.251       .   A
O21        Cu24 1.951       .   S
O21         C26 1.250       .   A
C562       C563 1.540       .   A
C561       C562 1.540       .   A
C562       C116 1.357       .   S
C892       C893 1.540       .   A
C891       C892 1.540       .   A
C892       C214 1.506       .   S
C885       C886 1.540       .   A
C881       C886 1.540       .   A
C886       H890 1.140       .   S
C561       C566 1.540       .   A
C566       H570 1.140       .   S
C565       C566 1.540       .   A
O48        Cu52 1.951       .   S
O49        Cu52 1.951       .   S
O50        Cu52 1.951       .   S
Cu51       Cu52 2.630       .   S
O47        Cu52 1.951       .   S
O43        Cu51 1.951       .   S
O44        Cu51 1.951       .   S
O45        Cu51 1.951       .   S
O46        Cu51 1.951       .   S
O239      Zr247 2.139       .   S
O239       C240 1.420       .   A
O236       C237 1.420       .   A
O236      Zr248 2.139       .   S
O235      Zr244 2.145       .   S
O235       C237 1.423       .   A
O232      Zr244 2.145       .   S
O232       C234 1.423       .   A
O233      Zr247 2.139       .   S
O233       C234 1.420       .   A
O230       C231 1.420       .   A
O230      Zr248 2.139       .   S
C966       H970 1.140       .   S
C965       C966 1.540       .   A
C961       C966 1.540       .   A
C964       H969 1.140       .   S
C964       C965 1.540       .   A
C963       C964 1.540       .   A
C366       C965 1.506   1_455   S
C325       C962 1.506       .   S
C961       C962 1.540       .   A
C962       C963 1.540       .   A
C963       H968 1.140       .   S
C961       H967 1.140       .   S
C891       C896 1.540       .   A
C896       H900 1.140       .   S
C895       C896 1.540       .   A
C831       H837 1.140       .   S
O482       C484 1.423       .   A
O483       C484 1.420       .   A
C484       C995 1.506   1_565   S
C981       H987 1.140       .   S
Zr367      O399 2.084       .   S
O399       H404 1.108       .   S
Zr387      O399 2.084       .   S
Zr390      O398 2.084       .   S
Zr370      O398 2.084       .   S
O398       H402 1.108       .   S
Zr390      O395 2.082       .   S
O395       H403 1.110       .   S
Zr387      O395 2.081       .   S
Zr394      O395 2.087       .   S
O426      Zr429 2.145       .   S
O426       C428 1.423       .   A
Zr367      O397 2.084       .   S
Zr387      O397 2.084       .   S
Zr394      O397 2.087       .   S
Zr390      O396 2.082       .   S
Zr387      O396 2.081       .   S
Zr390      O391 2.119       .   S
O391       H407 0.990       .   S
O519       H527 1.110       .   S
O421       C422 1.420       .   A
O421      Zr456 2.139       .   S
Zr390      O392 2.131       .   S
O392       H416 0.992       .   S
O392       H406 0.990       .   S
O436       H463 1.110       .   S
O461       H466 1.108       .   S
O434       H467 0.989       .   S
O460       H464 1.108       .   S
O457       H465 1.110       .   S
O44         C54 1.250       .   A
O454       H468 0.990       .   S
O453       H469 0.990       .   S
C762        C82 1.414       .   S
C761       C762 1.540       .   A
C762       C763 1.540       .   A
O318      Cu322 1.951       .   S
O318       C325 1.251       .   A
C936       H940 1.140       .   S
O59         C69 1.250       .   A
O59        Cu65 1.951       .   S
O58         C68 1.250       .   A
O58        Cu65 1.951       .   S
C941       H947 1.140       .   S
C944       H949 1.140       .   S
C943       H948 1.140       .   S
O50         C53 1.250       .   A
O57         C67 1.250       .   A
O57        Cu65 1.951       .   S
O314      Cu321 1.951       .   S
Cu321     Cu322 2.630       .   S
O316      Cu321 1.951       .   S
O313      Cu321 1.951       .   S
O320      Cu322 1.951       .   S
O317      Cu322 1.951       .   S
O319      Cu322 1.951       .   S
O278      Cu280 1.951       .   S
Cu279     Cu280 2.630       .   S
O276      Cu280 1.951       .   S
O277      Cu280 1.951       .   S
O275      Cu280 1.951       .   S
C983       H988 1.140       .   S
C801       C806 1.540       .   A
C801       H807 1.140       .   S
C801       C802 1.540       .   A
O163       H207 0.992       .   S
O163       H204 0.987       .   S
Zr162      O163 2.134       .   S
Zr159      O160 2.104       .   S
O160       H203 0.990       .   S
O161       H206 0.992       .   S
Zr159      O161 2.134       .   S
O161       H202 0.987       .   S
Zr221      O251 2.084       .   S
Zr221      O253 2.084       .   S
Zr221      O228 2.082       .   S
O218      Zr221 2.145       .   S
O209      Zr221 2.145       .   S
Zr221      O222 2.104       .   S
Zr221      O223 2.134       .   S
Zr221      O227 2.082       .   S
O167       C169 1.423       .   A
Zr162      O164 2.123       .   S
O164       H197 0.989       .   S
Zr159      O165 2.082       .   S
Zr162      O165 2.081       .   S
O165      Zr185 2.087       .   S
O168      Zr186 2.139       .   S
O168       C169 1.420       .   A
O180       H205 0.992       .   S
O180       H200 0.987       .   S
O181       H201 0.990       .   S
O492       H535 0.990       .   S
Zr491      O492 2.104       .   S
O493       H538 0.992       .   S
O493       H534 0.987       .   S
Zr491      O493 2.134       .   S
Zr494      O496 2.123       .   S
O496       H529 0.989       .   S
Zr494      O497 2.081       .   S
O497      Zr517 2.087       .   S
Zr491      O497 2.082       .   S
O495       H539 0.992       .   S
Zr494      O495 2.134       .   S
O495       H536 0.987       .   S
O148       C149 1.420       .   A
O148      Zr185 2.139       .   S
Zr494      O498 2.081       .   S
O498      Zr518 2.087       .   S
O498       H525 1.110       .   S
Zr491      O498 2.082       .   S
O499       C501 1.423       .   A
O499      Zr511 2.146       .   S
C753       H758 1.140       .   S
O299      Cu307 1.951       .   S
Cu307     Cu308 2.630       .   S
C663       H668 1.140       .   S
C663       C664 1.540       .   A
C662       C663 1.540       .   A
C684       H689 1.140       .   S
C761       H767 1.140       .   S
O30         C40 1.250       .   A
O35         C40 1.250       .   A
C40        C652 1.355       .   S
O31         C41 1.250       .   A
O34         C41 1.251       .   A
C41        C632 1.355       .   S
O33         C42 1.250       .   A
O32         C42 1.250       .   A
C42        C645 1.355       .   S
C644       H649 1.140       .   S
C641       H647 1.140       .   S
C764       H769 1.140       .   S
C763       H768 1.140       .   S
C636       H640 1.140       .   S
O75        Cu80 1.951       .   S
O77        Cu80 1.951       .   S
O76        Cu80 1.951       .   S
Cu79       Cu80 2.630       .   S
O78        Cu80 1.951       .   S
C28        C592 1.357       .   S
C592       C593 1.540       .   A
C591       C592 1.540       .   A
C591       C596 1.540       .   A
C591       H597 1.140       .   S
O346      Cu350 1.951       .   S
O347      Cu350 1.951       .   S
O345      Cu350 1.951       .   S
O348      Cu350 1.951       .   S
Cu349     Cu350 2.630       .   S
C594       C595 1.540       .   A
C510       C595 1.357       .   S
C595       C596 1.540       .   A
C593       C594 1.540       .   A
C594       H599 1.140       .   S
C644       C645 1.540       .   A
C643       C644 1.540       .   A
C611       C612 1.540       .   A
C611       H617 1.140       .   S
C611       C616 1.540       .   A
Zr429      O461 2.084       .   S
Zr429      O459 2.084       .   S
Zr429      O431 2.134       .   S
Zr429      O435 2.082       .   S
Zr429      O436 2.082       .   S
Zr429      O430 2.104       .   S
O417      Zr429 2.145       .   S
C26        C612 1.357       .   S
C612       C613 1.540       .   A
C646       H650 1.140       .   S
C645       C646 1.540       .   A
C641       C646 1.540       .   A
C691       C692 1.540       .   A
C691       C696 1.540       .   A
C340       C852 1.480   1_556   S
O331       C340 1.250       .   A
O330       C340 1.250       .   A
C692       C693 1.540       .   A
C693       C694 1.540       .   A
C694       C695 1.540       .   A
C695        C55 1.352       .   S
C695       C696 1.540       .   A
C696       H700 1.140       .   S
C901       C906 1.540       .   A
C901       H907 1.140       .   S
C901       C902 1.540       .   A
O375      Zr387 2.146       .   S
O384      Zr387 2.145       .   S
Zr387      O388 2.135       .   S
Zr387      O389 2.121       .   S
C616       H620 1.140       .   S
C615       C616 1.540       .   A
C642       C643 1.540       .   A
C643       H648 1.140       .   S
C686       H690 1.140       .   S
C751       H757 1.140       .   S
C751       C752 1.540       .   A
C751       C756 1.540       .   A
C234       C615 1.357       .   S
C614       C615 1.540       .   A
C1004     C1005 1.540       .   A
C1003     C1004 1.540       .   A
C1004     H1009 1.140       .   S
O378      Zr390 2.145       .   S
Zr390      O400 2.084       .   S
O381      Zr390 2.145       .   S
C752       C753 1.540       .   A
C753       C754 1.540       .   A
C793       H798 1.140       .   S
C794       H799 1.140       .   S
C1005     C1006 1.540       .   A
C1001     C1006 1.540       .   A
C1006     H1010 1.140       .   S
C584       H589 1.140       .   S
C563       C564 1.540       .   A
C563       H568 1.140       .   S
C786       H790 1.140       .   S
C1001     H1007 1.140       .   S
C1001     C1002 1.540       .   A
O274       C284 1.250       .   A
O275       C284 1.250       .   A
O273       C283 1.250       .   A
O276       C283 1.251       .   A
C283       C912 1.511       .   S
O272       C282 1.250       .   A
O277       C282 1.250       .   A
C282       C902 1.484       .   S
O278       C281 1.250       .   A
O271       C281 1.250       .   A
C835       C281 1.511   1_554   S
C791       H797 1.140       .   S
C561       H567 1.140       .   S
O447       C448 1.420       .   A
C448       C675 1.352       .   S
O446       C448 1.423       .   A
O443       C445 1.423       .   A
O444       C445 1.420       .   A
C445       C552 1.418       .   S
O114       C116 1.423       .   A
O115       C116 1.420       .   A
O7         Cu10 1.951       .   S
O6         Cu10 1.951       .   S
O5         Cu10 1.951       .   S
Cu9        Cu10 2.630       .   S
O8         Cu10 1.951       .   S
C682       C113 1.413   1_655   S
O112       C113 1.420       .   A
O111       C113 1.423       .   A
O108       C110 1.423       .   A
O109       C110 1.420       .   A
C635       C110 1.355       .   S
C973       H978 1.140       .   S
Zr452      O462 2.084       .   S
Zr456      O462 2.087       .   S
Zr432      O462 2.084       .   S
Zr449      O461 2.084       .   S
Zr455      O461 2.087       .   S
Zr452      O460 2.084       .   S
Zr432      O460 2.084       .   S
Zr455      O460 2.087       .   S
O88       Zr100 2.146       .   S
O88         C90 1.423       .   A
O238       C240 1.423       .   A
O238      Zr241 2.145       .   S
C752        C81 1.414       .   S
C841       C846 1.540       .   A
C846       H850 1.140       .   S
C845       C846 1.540       .   A
O85        Zr97 2.145       .   S
O85         C87 1.423       .   A
O86       Zr123 2.139       .   S
O86         C87 1.420       .   A
C564       C565 1.540       .   A
C565        C11 1.357       .   S
C971       H977 1.140       .   S
O299       C309 1.250       .   A
C771       H777 1.140       .   S
O290      Cu294 1.951       .   S
O290       C297 1.251       .   A
O291      Cu294 1.951       .   S
O291       C296 1.250       .   A
O292      Cu294 1.951       .   S
O292       C295 1.250       .   A
O17        Cu23 1.951       .   S
O17         C27 1.250       .   A
O16         C26 1.250       .   A
O16        Cu23 1.951       .   S
O15        Cu23 1.951       .   S
O15         C25 1.250       .   A
C240       C655 1.355       .   S
C755       C107 1.414   1_655   S
C754       C755 1.540       .   A
C755       C756 1.540       .   A
C976       H980 1.140       .   S
C541       H547 1.140       .   S
C984       H989 1.140       .   S
O516       H540 0.992       .   S
O19        Cu24 1.951       .   S
O19         C28 1.250       .   A
O18         C28 1.250       .   A
O18        Cu23 1.951       .   S
C671       H677 1.140       .   S
C231       C735 1.413   1_565   S
O229       C231 1.423       .   A
C772       C773 1.540       .   A
C773       H778 1.140       .   S
C773       C774 1.540       .   A
C237       C775 1.414   1_565   S
O346       C353 1.251       .   A
O347       C352 1.250       .   A
O344       C354 1.250       .   A
O344      Cu349 1.951       .   S
O345       C354 1.250       .   A
O342       C352 1.250       .   A
O342      Cu349 1.951       .   S
O343       C353 1.250       .   A
O343      Cu349 1.951       .   S
O341       C351 1.250       .   A
O341      Cu349 1.951       .   S
Zr117      O126 2.081       .   S
Zr123      O126 2.087       .   S
Zr120      O126 2.082       .   S
Zr117      O127 2.084       .   S
Zr97       O127 2.084       .   S
Zr124      O127 2.087       .   S
C754       H759 1.140       .   S
Zr117      O125 2.081       .   S
Zr120      O125 2.082       .   S
Zr124      O125 2.087       .   S
O125       H133 1.110       .   S
Zr120      O122 2.131       .   S
O122       H136 0.990       .   S
O122       H146 0.992       .   S
C158       C832 1.511       .   S
C831       C832 1.540       .   A
C832       C833 1.540       .   A
Zr120      O121 2.119       .   S
O121       H137 0.990       .   S
C833       C834 1.540       .   A
C833       H838 1.140       .   S
C803       H808 1.140       .   S
C804       H809 1.140       .   S
Zr100      O128 2.084       .   S
Zr123      O128 2.087       .   S
Zr120      O128 2.084       .   S
O128       H132 1.108       .   S
Zr117      O129 2.084       .   S
Zr123      O129 2.087       .   S
Zr97       O129 2.084       .   S
O129       H134 1.108       .   S
C834       C835 1.540       .   A
C834       H839 1.140       .   S
C835       C836 1.540       .   A
C836       H840 1.140       .   S
C831       C836 1.540       .   A
C931       H937 1.140       .   S
Zr511      O519 2.081       .   S
Zr518      O519 2.087       .   S
Zr514      O519 2.082       .   S
C934       C935 1.540       .   A
C934       H939 1.140       .   S
C933       C934 1.540       .   A
C481       C935 1.484       .   S
C935       C936 1.540       .   A
O516       H530 0.990       .   S
Zr514      O516 2.131       .   S
O515       H531 0.990       .   S
Zr514      O515 2.119       .   S
C993       H998 1.140       .   S
Zr511      O513 2.121       .   S
O513       H533 0.990       .   S
Zr511      O512 2.135       .   S
O512       H532 0.987       .   S
O512       H537 0.992       .   S
C933       H938 1.140       .   S
C932       C933 1.540       .   A
C932       C296 1.484       .   S
C931       C932 1.540       .   A
O389       H409 0.990       .   S
C931       C936 1.540       .   A
C661       H667 1.140       .   S
C623       C624 1.540       .   A
C624       C625 1.540       .   A
C624       H629 1.140       .   S
Zr182      O192 2.084       .   S
Zr162      O192 2.084       .   S
Zr186      O192 2.087       .   S
O191       H196 1.108       .   S
Zr159      O191 2.084       .   S
Zr185      O191 2.087       .   S
Zr182      O190 2.084       .   S
Zr162      O190 2.084       .   S
Zr185      O190 2.087       .   S
O190       H194 1.108       .   S
C871       H877 1.140       .   S
C576       H580 1.140       .   S
C874       H879 1.140       .   S
C873       H878 1.140       .   S
O486      Zr517 2.139       .   S
O480      Zr517 2.139       .   S
O509      Zr517 2.139       .   S
Zr517      O522 2.087       .   S
Zr517      O523 2.087       .   S
Zr517      O520 2.087       .   S
O503      Zr517 2.139       .   S
C756       H760 1.140       .   S
C724       H729 1.140       .   S
C723       H728 1.140       .   S
C721       H727 1.140       .   S
O228       H255 1.110       .   S
O485      Zr494 2.145       .   S
O482      Zr494 2.146       .   S
Zr494      O522 2.084       .   S
Zr494      O524 2.084       .   S
O249       H257 1.110       .   S
O252       H256 1.108       .   S
C711       H717 1.140       .   S
C711       C716 1.540       .   A
C711       C712 1.540       .   A
C713       H718 1.140       .   S
C713       C714 1.540       .   A
C712       C713 1.540       .   A
C68        C712 1.413       .   S
O226       H259 0.989       .   S
O253       H258 1.108       .   S
C490      C1015 1.506   1_565   S
O489       C490 1.420       .   A
O488       C490 1.423       .   A
O105       C107 1.423       .   A
O106       C107 1.420       .   A
C309       C865 1.485   1_556   S
C654       H659 1.140       .   S
C654       C655 1.540       .   A
C653       C654 1.540       .   A
C655       C656 1.540       .   A
C656       H660 1.140       .   S
C651       C656 1.540       .   A
C651       H657 1.140       .   S
C651       C652 1.540       .   A
C652       C653 1.540       .   A
C653       H658 1.140       .   S
C623       H628 1.140       .   S
C622        C39 1.355       .   S
C621       C622 1.540       .   A
C622       C623 1.540       .   A
C606       H610 1.140       .   S
C952       C953 1.540       .   A
C953       H958 1.140       .   S
C953       C954 1.540       .   A
C614       H619 1.140       .   S
C613       H618 1.140       .   S
C586       H590 1.140       .   S
O427       C428 1.420       .   A
O427      Zr456 2.139       .   S
O36         C39 1.250       .   A
C803       C804 1.540       .   A
C904       H909 1.140       .   S
C746       H750 1.140       .   S
C853       C854 1.540       .   A
C853       H858 1.140       .   S
C852       C853 1.540       .   A
C152       C842 1.511       .   S
O151       C152 1.420       .   A
O150       C152 1.423       .   A
C621       H627 1.140       .   S
C621       C626 1.540       .   A
O424       C425 1.420       .   A
O424      Zr455 2.139       .   S
C311       C952 1.485       .   S
C951       C952 1.540       .   A
O154       C155 1.420       .   A
O153       C155 1.423       .   A
C155       C822 1.480       .   S
C866       H870 1.140       .   S
O423       C425 1.423       .   A
O423      Zr432 2.145       .   S
O157       C158 1.420       .   A
O156       C158 1.423       .   A
C781       C782 1.540       .   A
C781       H787 1.140       .   S
C781       C786 1.540       .   A
C802       C803 1.540       .   A
C885       C337 1.506   1_564   S
C884       C885 1.540       .   A
C995       C996 1.540       .   A
C996      H1000 1.140       .   S
C991       C996 1.540       .   A
O420       C422 1.423       .   A
O420      Zr432 2.146       .   S
C994       C995 1.540       .   A
C951       C956 1.540       .   A
C951       H957 1.140       .   S
C994       H999 1.140       .   S
C993       C994 1.540       .   A
Zr224      O254 2.084       .   S
Zr244      O254 2.084       .   S
Zr248      O254 2.087       .   S
Zr247      O250 2.087       .   S
Zr244      O250 2.082       .   S
Zr241      O250 2.081       .   S
Zr241      O251 2.084       .   S
Zr248      O251 2.087       .   S
Zr247      O252 2.087       .   S
Zr224      O252 2.084       .   S
Zr244      O252 2.084       .   S
Zr247      O253 2.087       .   S
Zr241      O253 2.084       .   S
C991       C992 1.540       .   A
C991       H997 1.140       .   S
O150      Zr162 2.146       .   S
Zr162      O166 2.081       .   S
O153      Zr162 2.145       .   S
C96        C815 1.506       .   S
C815       C816 1.540       .   A
C814       C815 1.540       .   A
C593       H598 1.140       .   S
O229      Zr241 2.146       .   S
Zr224      O228 2.081       .   S
O228      Zr248 2.087       .   S
O62        Cu66 1.951       .   S
O63        Cu66 1.951       .   S
O61        Cu66 1.951       .   S
O64        Cu66 1.951       .   S
Cu65       Cu66 2.630       .   S
O60        Cu65 1.951       .   S
C169       C575 1.418       .   S
C574       C575 1.540       .   A
C575       C576 1.540       .   A
C574       H579 1.140       .   S
O223       H264 0.987       .   S
O223       H268 0.992       .   S
O222       H265 0.990       .   S
Zr224      O225 2.134       .   S
O225       H266 0.987       .   S
O225       H269 0.992       .   S
O227      Zr247 2.087       .   S
Zr224      O227 2.081       .   S
Zr224      O226 2.123       .   S
C971       C972 1.540       .   A
C971       C976 1.540       .   A
C844       H849 1.140       .   S
C972       C973 1.540       .   A
C973       C974 1.540       .   A
C324       C972 1.480       .   S
C974       C975 1.540       .   A
C975       C976 1.540       .   A
C419       C975 1.480       .   S
C974       H979 1.140       .   S
O489      Zr518 2.139       .   S
O483      Zr518 2.139       .   S
O506      Zr518 2.139       .   S
Zr518      O521 2.087       .   S
O500      Zr518 2.139       .   S
Zr518      O524 2.087       .   S
C924       H929 1.140       .   S
C923       H928 1.140       .   S
O418       C419 1.420       .   A
O418      Zr455 2.139       .   S
Zr97        O99 2.134       .   S
Zr97        O98 2.104       .   S
O94        Zr97 2.145       .   S
Zr97       O103 2.082       .   S
Zr97       O104 2.082       .   S
C625       C386 1.355       .   S
C625       C626 1.540       .   A
C714       C715 1.540       .   A
C714       H719 1.140       .   S
C871       C872 1.540       .   A
C871       C876 1.540       .   A
C217       C872 1.484       .   S
C872       C873 1.540       .   A
C873       C874 1.540       .   A
C956       H960 1.140       .   S
C955       C956 1.540       .   A
O417       C419 1.423       .   A
C876       H880 1.140       .   S
C875       C876 1.540       .   A
C571       H577 1.140       .   S
O454       H478 0.992       .   S
C661       C666 1.540       .   A
C661       C662 1.540       .   A
O450       H475 0.992       .   S
O433       H474 0.987       .   S
O433       H477 0.992       .   S
O431       H476 0.992       .   S
O451       H471 0.990       .   S
O450       H470 0.987       .   S
O430       H473 0.990       .   S
O431       H472 0.987       .   S
O48         C55 1.251       .   A
O49         C54 1.250       .   A
O317       C326 1.250       .   A
O316       C326 1.250       .   A
C881       H887 1.140       .   S
C881       C882 1.540       .   A
O382      Zr394 2.139       .   S
Zr394      O400 2.087       .   S
O359      Zr394 2.139       .   S
O376      Zr394 2.139       .   S
O374      Zr394 2.087       .   S
O365      Zr394 2.139       .   S
O313       C323 1.250       .   A
C882       C883 1.540       .   A
C882       C220 1.506       .   S
O43         C53 1.250       .   A
O319       C324 1.250       .   A
O45         C55 1.250       .   A
O46         C56 1.250       .   A
O47         C56 1.250       .   A
C543       H548 1.140       .   S
C546       H550 1.140       .   S
O444      Zr456 2.139       .   S
C904       C905 1.540       .   A
C903       C904 1.540       .   A
C905       C906 1.540       .   A
C363       C905 1.484       .   S
C906       H910 1.140       .   S
C613       C614 1.540       .   A
O447      Zr455 2.139       .   S
C902       C903 1.540       .   A
C903       H908 1.140       .   S
C360      C1005 1.506   1_455   S
O174       C175 1.420       .   A
O174      Zr186 2.139       .   S
O177       C178 1.420       .   A
O177      Zr185 2.139       .   S
O176       C178 1.423       .   A
O171       C172 1.420       .   A
O171      Zr185 2.139       .   S
O170      Zr182 2.145       .   S
O170       C172 1.423       .   A
O173      Zr182 2.145       .   S
O173       C175 1.423       .   A
C353      C1002 1.506       .   S
C1002     C1003 1.540       .   A
C715       C716 1.540       .   A
C507       C715 1.413   1_565   S
O488      Zr491 2.145       .   S
O508       C510 1.423       .   A
O509       C510 1.420       .   A
O485       C487 1.423       .   A
O486       C487 1.420       .   A
C916       H920 1.140       .   S
O480       C481 1.420       .   A
C724       C725 1.540       .   A
C723       C724 1.540       .   A
C716       H720 1.140       .   S
C178       C725 1.352       .   S
C725       C726 1.540       .   A
C721       C726 1.540       .   A
C726       H730 1.140       .   S
C706       H710 1.140       .   S
C596       H600 1.140       .   S
C554       H559 1.140       .   S
O60         C70 1.250       .   A
O61         C70 1.250       .   A
C70        C732 1.413       .   S
C721       C722 1.540       .   A
Zr432      O434 2.123       .   S
Zr432      O435 2.081       .   S
Zr432      O436 2.081       .   S
Zr432      O433 2.134       .   S
C722       C723 1.540       .   A
C895       C354 1.506   1_564   S
O355       C357 1.423       .   A
C357       C945 1.485       .   S
O356       C357 1.420       .   A
C352      C1012 1.506       .   S
O242       H267 0.992       .   S
O246       H260 0.990       .   S
O245       H261 0.990       .   S
O242       H262 0.987       .   S
O243       H263 0.990       .   S
O289      Cu294 1.951       .   S
Cu293     Cu294 2.630       .   S
O446      Zr449 2.145       .   S
O288      Cu293 1.951       .   S
O287      Cu293 1.951       .   S
O286      Cu293 1.951       .   S
O285      Cu293 1.951       .   S
C682       C683 1.540       .   A
C683       H688 1.140       .   S
C683       C684 1.540       .   A
C681       C682 1.540       .   A
C681       C686 1.540       .   A
C681       H687 1.140       .   S
C685       C686 1.540       .   A
C54        C685 1.413       .   S
C684       C685 1.540       .   A
O92       Zr123 2.139       .   S
O109      Zr123 2.139       .   S
O103      Zr123 2.087       .   S
O115      Zr123 2.139       .   S
Zr120      O130 2.084       .   S
O108      Zr120 2.145       .   S
O111      Zr120 2.145       .   S
O89       Zr124 2.139       .   S
Zr124      O130 2.087       .   S
O95       Zr124 2.139       .   S
O112      Zr124 2.139       .   S
O104      Zr124 2.087       .   S
O106      Zr124 2.139       .   S
O523       H528 1.108       .   S
C986       H990 1.140       .   S
C664       C665 1.540       .   A
C665       C666 1.540       .   A
C377       C665 1.413   1_455   S
Cu23       Cu24 2.630       .   S
C783       H788 1.140       .   S
O212      Zr224 2.146       .   S
O215      Zr224 2.145       .   S
C776       H780 1.140       .   S
O438       C439 1.420       .   A
C439       C585 1.418       .   S
O437       C439 1.423       .   A
C666       H670 1.140       .   S
O166       H193 1.110       .   S
Zr159      O166 2.082       .   S
O166      Zr186 2.087       .   S
O328      Cu335 1.951       .   S
O328       C338 1.250       .   A
O329      Cu335 1.951       .   S
O329       C339 1.250       .   A
Zr449      O458 2.081       .   S
Zr452      O458 2.082       .   S
Zr455      O458 2.087       .   S
Zr449      O459 2.084       .   S
Zr456      O459 2.087       .   S
Zr449      O457 2.081       .   S
Zr452      O457 2.082       .   S
Zr456      O457 2.087       .   S
Zr452      O454 2.131       .   S
O327      Cu335 1.951       .   S
O327       C337 1.250       .   A
O320       C323 1.250       .   A
Zr452      O453 2.119       .   S
Zr449      O450 2.135       .   S
Zr449      O451 2.121       .   S
C745       C746 1.540       .   A
C741       C746 1.540       .   A
O289       C298 1.250       .   A
O288       C298 1.250       .   A
C744       C745 1.540       .   A
C743       C744 1.540       .   A
C744       H749 1.140       .   S
O287       C297 1.250       .   A
O286       C296 1.250       .   A
O285       C295 1.250       .   A
O92         C93 1.420       .   A
O91         C93 1.423       .   A
C782        C93 1.485       .   S
O89         C90 1.420       .   A
C792        C90 1.506       .   S
C56        C662 1.413       .   S
O95         C96 1.420       .   A
O94         C96 1.423       .   A
C555       C556 1.540       .   A
C551       C556 1.540       .   A
C556       H560 1.140       .   S
O210      Zr247 2.139       .   S
O210       C211 1.420       .   A
O358      Zr370 2.146       .   S
O358       C360 1.423       .   A
O212       C214 1.423       .   A
O213       C214 1.420       .   A
O213      Zr248 2.139       .   S
C383       C745 1.414   1_455   S
O215       C217 1.423       .   A
O216      Zr247 2.139       .   S
O216       C217 1.420       .   A
C543       C544 1.540       .   A
C542       C543 1.540       .   A
O218       C220 1.423       .   A
O219       C220 1.420       .   A
O219      Zr248 2.139       .   S
O479      Zr491 2.145       .   S
Zr491      O523 2.084       .   S
Zr491      O521 2.084       .   S
O355      Zr367 2.145       .   S
C811       H817 1.140       .   S
Zr100      O130 2.084       .   S
C806       H810 1.140       .   S
C796       H800 1.140       .   S
C1016     H1020 1.140       .   S
C814       H819 1.140       .   S
C813       H818 1.140       .   S
C825       C826 1.540       .   A
C826       H830 1.140       .   S
C821       C826 1.540       .   A
C326       C825 1.480   1_556   S
C824       C825 1.540       .   A
Zr370      O400 2.084       .   S
Zr370      O372 2.123       .   S
O361      Zr370 2.145       .   S
Zr370      O373 2.081       .   S
Zr370      O371 2.134       .   S
Zr370      O374 2.081       .   S
C823       H828 1.140       .   S
C823       C824 1.540       .   A
C822       C823 1.540       .   A
C1003     H1008 1.140       .   S
C821       C822 1.540       .   A
C821       H827 1.140       .   S
O522       H526 1.108       .   S
Zr514      O522 2.084       .   S
Zr511      O523 2.084       .   S
Zr511      O520 2.081       .   S
Zr514      O520 2.082       .   S
Zr511      O521 2.084       .   S
C943       C944 1.540       .   A
C944       C945 1.540       .   A
C945       C946 1.540       .   A
Zr514      O524 2.084       .   S
O365       C366 1.420       .   A
C742       C743 1.540       .   A
C743       H748 1.140       .   S
C921       C922 1.540       .   A
C921       H927 1.140       .   S
C921       C926 1.540       .   A
C883       H888 1.140       .   S
C884       H889 1.140       .   S
C631       H637 1.140       .   S
C926       H930 1.140       .   S
C925       C926 1.540       .   A
C923       C924 1.540       .   A
C924       C925 1.540       .   A
C761       C766 1.540       .   A
O147       C149 1.423       .   A
O147      Zr159 2.145       .   S
C763       C764 1.540       .   A
C764       C765 1.540       .   A
C765       C766 1.540       .   A
C501       C765 1.414   1_565   S
C766       H770 1.140       .   S
O505       C507 1.423       .   A
O505      Zr514 2.145       .   S
O98        H141 0.990       .   S
O99        H140 0.987       .   S
O118       H143 0.992       .   S
O101       H142 0.987       .   S
O101       H145 0.992       .   S
O99        H144 0.992       .   S
C487       C955 1.485       .   S
C635       C636 1.540       .   A
C634       C635 1.540       .   A
C843       C844 1.540       .   A
C844       C845 1.540       .   A
C310       C942 1.485       .   S
C312       C785 1.485   1_556   S
C741       H747 1.140       .   S
C741       C742 1.540       .   A
C641       C642 1.540       .   A
C504       C642 1.355       .   S
O502       C504 1.423       .   A
O502      Zr514 2.145       .   S
O503       C504 1.420       .   A
C583       H588 1.140       .   S
C27        C605 1.418       .   S
C25        C582 1.418       .   S
C664       H669 1.140       .   S
O506       C507 1.420       .   A
C784       H789 1.140       .   S
C581       H587 1.140       .   S
C893       C894 1.540       .   A
C894       H899 1.140       .   S
C894       C895 1.540       .   A
C812       C813 1.540       .   A
C811       C812 1.540       .   A
C351       C812 1.506   1_656   S
O118       H138 0.987       .   S
O119       H139 0.990       .   S
O102       H135 0.989       .   S
O104       H131 1.110       .   S
C811       C816 1.540       .   A
C816       H820 1.140       .   S
O364       C366 1.423       .   A
O359       C360 1.420       .   A
O361       C363 1.423       .   A
O362       C363 1.420       .   A
C802        C87 1.484       .   S
C67        C722 1.352       .   S
C813       C814 1.540       .   A
Zr244      O249 2.082       .   S
Zr241      O249 2.081       .   S
Zr248      O249 2.087       .   S
Zr244      O246 2.131       .   S
O246       H270 0.992       .   S
Zr244      O245 2.119       .   S
O385       C386 1.420       .   A
Zr241      O243 2.121       .   S
Zr241      O242 2.135       .   S
O156      Zr159 2.145       .   S
Zr159      O189 2.084       .   S
O435      Zr455 2.087       .   S
O388       H408 0.987       .   S
O388       H413 0.992       .   S
C911       H917 1.140       .   S
Zr367      O373 2.082       .   S
O364      Zr367 2.145       .   S
Zr367      O374 2.082       .   S
Zr367      O368 2.104       .   S
Zr367      O369 2.134       .   S
C861       H867 1.140       .   S
O74        Cu79 1.951       .   S
O71        Cu79 1.951       .   S
O73        Cu79 1.951       .   S
O72        Cu79 1.951       .   S
C954       C955 1.540       .   A
O500       C501 1.420       .   A
C954       H959 1.140       .   S
C913       H918 1.140       .   S
C984       C985 1.540       .   A
C983       C984 1.540       .   A
C985       C986 1.540       .   A
C985       C425 1.480       .   S
C981       C986 1.540       .   A
C914       H919 1.140       .   S
C851       H857 1.140       .   S
C981       C982 1.540       .   A
C982       C338 1.480       .   S
C982       C983 1.540       .   A
C862       C863 1.540       .   A
C863       H868 1.140       .   S
C863       C864 1.540       .   A
C211       C862 1.485       .   S
C861       C862 1.540       .   A
C861       C866 1.540       .   A
C865       C866 1.540       .   A
C883       C884 1.540       .   A
C864       C865 1.540       .   A
C864       H869 1.140       .   S
O374       H401 1.110       .   S
O372       H405 0.989       .   S
O78         C81 1.250       .   A
C84        C772 1.414       .   S
C771       C772 1.540       .   A
O75         C84 1.250       .   A
O74         C84 1.250       .   A
O77         C82 1.250       .   A
O76         C83 1.251       .   A
O71         C81 1.250       .   A
O73         C83 1.250       .   A
O72         C82 1.250       .   A
C1011     H1017 1.140       .   S
C632       C633 1.540       .   A
C631       C632 1.540       .   A
C1014     H1019 1.140       .   S
C1013     H1018 1.140       .   S
C915       C916 1.540       .   A
C914       C915 1.540       .   A
C422       C915 1.511       .   S
C913       C914 1.540       .   A
C912       C913 1.540       .   A
C911       C912 1.540       .   A
C911       C916 1.540       .   A
C603       C604 1.540       .   A
C604       H609 1.140       .   S
C604       C605 1.540       .   A
C1015     C1016 1.540       .   A
C1011     C1016 1.540       .   A
Zr100      O101 2.134       .   S
Zr100      O102 2.123       .   S
Zr100      O103 2.081       .   S
Zr100      O104 2.081       .   S
O105      Zr117 2.146       .   S
C1011     C1012 1.540       .   A
C941       C946 1.540       .   A
C946       H950 1.140       .   S
C734       H739 1.140       .   S
C175       C602 1.418       .   S
C602       C603 1.540       .   A
C601       C602 1.540       .   A
C582       C583 1.540       .   A
C583       C584 1.540       .   A
C843       H848 1.140       .   S
C701       H707 1.140       .   S
O63         C68 1.250       .   A
O62         C69 1.251       .   A
C69        C702 1.352       .   S
O64         C67 1.250       .   A
C704       H709 1.140       .   S
C703       H708 1.140       .   S
O272      Cu279 1.951       .   S
O273      Cu279 1.951       .   S
O271      Cu279 1.951       .   S
O274      Cu279 1.951       .   S
C893       H898 1.140       .   S
O437      Zr449 2.146       .   S
C631       C636 1.540       .   A
C323       C795 1.506   1_656   S
O314       C324 1.250       .   A
C735       C736 1.540       .   A
C731       C736 1.540       .   A
C736       H740 1.140       .   S
C734       C735 1.540       .   A
C733       C734 1.540       .   A
C732       C733 1.540       .   A
C733       H738 1.140       .   S
C731       C732 1.540       .   A
C731       H737 1.140       .   S
O436      Zr456 2.087       .   S
Zr117      O119 2.121       .   S
Zr117      O118 2.135       .   S
O114      Zr117 2.145       .   S
C774       C775 1.540       .   A
C775       C776 1.540       .   A
C891       H897 1.140       .   S
C564       H569 1.140       .   S
C634       H639 1.140       .   S
C633       H638 1.140       .   S
O3          C13 1.250       .   A
C13        C545 1.357       .   S
O6          C13 1.251       .   A
C12        C555 1.418       .   S
O7          C12 1.250       .   A
O2          C12 1.250       .   A
O8          C11 1.250       .   A
O1          C11 1.250       .   A
O5          C14 1.250       .   A
O4          C14 1.250       .   A
C572        C14 1.418       .   S
O31        Cu37 1.951       .   S
O30        Cu37 1.951       .   S
O32        Cu37 1.951       .   S
Cu37       Cu38 2.630       .   S
C633       C634 1.540       .   A
O33        Cu38 1.951       .   S
O35        Cu38 1.951       .   S
O34        Cu38 1.951       .   S
O36        Cu38 1.951       .   S
C774       H779 1.140       .   S
C782       C783 1.540       .   A
C783       C784 1.540       .   A
C428       C925 1.511       .   S
C785       C786 1.540       .   A
C784       C785 1.540       .   A
O209       C211 1.423       .   A
C544       C545 1.540       .   A
C544       H549 1.140       .   S
O441       C442 1.420       .   A
O441      Zr455 2.139       .   S
O440      Zr452 2.145       .   S
O440       C442 1.423       .   A
O443      Zr452 2.145       .   S
O334      Cu336 1.951       .   S
O334       C337 1.250       .   A
O333      Cu336 1.951       .   S
O333       C338 1.250       .   A
O332      Cu336 1.951       .   S
O332       C339 1.251       .   A
O331      Cu336 1.951       .   S
O330      Cu335 1.951       .   S
O368       H411 0.990       .   S
Zr182      O183 2.119       .   S
Zr182      O184 2.131       .   S
Zr182      O187 2.082       .   S
Zr182      O188 2.082       .   S
O154      Zr185 2.139       .   S
Zr185      O188 2.087       .   S
Zr186      O189 2.087       .   S
O157      Zr186 2.139       .   S
O151      Zr186 2.139       .   S
Zr186      O187 2.087       .   S
O369       H410 0.987       .   S
O369       H414 0.992       .   S
C172       C692 1.352       .   S
C83        C742 1.414       .   S
C702       C703 1.540       .   A
C701       C702 1.540       .   A
C554       C555 1.540       .   A
C553       C554 1.540       .   A
C553       H558 1.140       .   S
C552       C553 1.540       .   A
C551       C552 1.540       .   A
C551       H557 1.140       .   S
C703       C704 1.540       .   A
C701       C706 1.540       .   A
C705       C706 1.540       .   A
C824       H829 1.140       .   S
O382       C383 1.420       .   A
O381       C383 1.423       .   A
O438      Zr456 2.139       .   S
O384       C386 1.423       .   A
O4          Cu9 1.951       .   S
O3          Cu9 1.951       .   S
O2          Cu9 1.951       .   S
O1          Cu9 1.951       .   S
C545       C546 1.540       .   A
C541       C546 1.540       .   A
C298       C875 1.484   1_556   S
C874       C875 1.540       .   A
Cu335     Cu336 2.630       .   S
C541       C542 1.540       .   A
C380       C542 1.357       .   S
C771       C776 1.540       .   A
C603       H608 1.140       .   S
C53        C672 1.352       .   S
C672       C673 1.540       .   A
C671       C672 1.540       .   A
C673       H678 1.140       .   S
C673       C674 1.540       .   A
C671       C676 1.540       .   A
C676       H680 1.140       .   S
C675       C676 1.540       .   A
C601       C606 1.540       .   A
C601       H607 1.140       .   S
C674       H679 1.140       .   S
C674       C675 1.540       .   A
C851       C852 1.540       .   A
C605       C606 1.540       .   A
C581       C582 1.540       .   A
C581       C586 1.540       .   A
C584       C585 1.540       .   A
C585       C586 1.540       .   A
C1014     C1015 1.540       .   A
C1013     C1014 1.540       .   A
C1012     C1013 1.540       .   A
O376       C377 1.420       .   A
O375       C377 1.423       .   A
C851       C856 1.540       .   A
O184       H208 0.992       .   S
C571       C576 1.540       .   A
C571       C572 1.540       .   A
C845       C295 1.511   1_554   S
C297       C922 1.511       .   S
O187       H195 1.110       .   S
O184       H198 0.990       .   S
O183       H199 0.990       .   S
C855       C856 1.540       .   A
C856       H860 1.140       .   S
C854       H859 1.140       .   S
C854       C855 1.540       .   A
C149       C855 1.480       .   S
C339       C992 1.506       .   S
C992       C993 1.540       .   A
O479       C481 1.423       .   A
O91       Zr100 2.145       .   S
C942       C943 1.540       .   A
C941       C942 1.540       .   A
O348       C351 1.250       .   A
O371       H412 0.987       .   S
O371       H415 0.992       .   S
O379       C380 1.420       .   A
O378       C380 1.423       .   A
C922       C923 1.540       .   A
O508      Zr511 2.145       .   S
C841       H847 1.140       .   S
C442       C705 1.352       .   S
C841       C842 1.540       .   A
C842       C843 1.540       .   A
C704       C705 1.540       .   A
C794       C795 1.540       .   A
C795       C796 1.540       .   A
C793       C794 1.540       .   A
C791       C796 1.540       .   A
C791       C792 1.540       .   A
C792       C793 1.540       .   A
