data_fog_v1-3c_triazine_Ch_v2-4c_Cu_1_Ch_1B_4H_Ch_1B_4H_Ch
_audit_creation_date              2019-09-04
_audit_creation_method            'tobacco_3.0'
_symmetry_space_group_name_H-M    'P1'
_symmetry_Int_Tables_number       1
_symmetry_cell_setting            triclinic
loop_
_symmetry_equiv_pos_as_xyz
  x,y,z
_cell_length_a                    37.969114784822686
_cell_length_b                    37.9705046046068
_cell_length_c                    41.751895513248
_cell_angle_alpha                 90.00744142518604
_cell_angle_beta                  89.9923868956244
_cell_angle_gamma                 120.01068062197182
loop_
_atom_site_label
_atom_site_type_symbol
_atom_site_fract_x
_atom_site_fract_y
_atom_site_fract_z
C1         C    0.0250984584    0.3672711631    0.4749037092
N2         N    0.0000056735    0.3344468461    0.5000012107
C3         C   -0.0250927850    0.3421756830    0.5250975014
N4         N   -0.0250984584    0.3827288369    0.5250962908
C5         C   -0.0000056735    0.4155531539    0.4999987893
N6         N    0.0250927850    0.4078243170    0.4749024986
C7         C    0.6415439236    0.6755018561    0.8584242150
N8         N    0.6415433990    0.7160575853    0.8584221844
C9         C    0.6666386326    0.7488837342    0.8333241950
N10        N    0.6917343908    0.7411541540    0.8082282363
C11        C    0.6917349155    0.7005984248    0.8082302668
N12        N    0.6666396819    0.6677722759    0.8333282562
C13        C    0.3082221496    0.0088345661    0.1917714922
N14        N    0.3333173089    0.0011045273    0.1666752683
C15        C    0.3584144043    0.0339314485    0.1415783271
N16        N    0.3584163403    0.0744884086    0.1415776098
C17        C    0.3333211810    0.0822184475    0.1666738337
N18        N    0.3082240856    0.0493915262    0.1917707749
C19        C    0.6283040571    0.6490268329    0.4749009623
N20        N    0.5877412190    0.6084631056    0.4749002385
C21        C    0.5800046850    0.5756341617    0.4999916949
N22        N    0.6128309892    0.5833689451    0.5250838751
C23        C    0.6533938273    0.6239326725    0.5250845989
N24        N    0.6611303613    0.6567616164    0.4999931425
C25        C    0.2949662549    0.9823646499    0.8082491785
N26        N    0.3277933652    0.9900992324    0.8333405318
C27        C    0.3200571069    0.9572706180    0.8584322237
N28        N    0.2794937383    0.9167074210    0.8584325624
C29        C    0.2466666281    0.9089728384    0.8333412091
N30        N    0.2544028864    0.9418014528    0.8082495171
C31        C    0.9867561181    0.2905831148    0.1917278061
N32        N    0.9461922965    0.2500203708    0.1917272468
C33        C    0.9133625038    0.2422834359    0.1666353682
N34        N    0.9210965329    0.2751092449    0.1415440489
C35        C    0.9616603545    0.3156719889    0.1415446081
N36        N    0.9944901471    0.3234089238    0.1666364867
C37        C    0.3716369311    1.0206712406    0.5250945303
N38        N    0.3388110547    0.9955748962    0.4999987056
C39        C    0.3465429154    0.9704790726    0.4749026560
N40        N    0.3871006524    0.9704795934    0.4749024311
C41        C    0.4199265287    0.9955759379    0.4999982557
N42        N    0.4121946681    1.0206717614    0.5250943053
C43        C    0.0383350229    0.3540539862    0.8583919754
N44        N    0.0055102918    0.3289589377    0.8332950151
C45        C    0.0132424056    0.3038626270    0.8081995996
N46        N    0.0537992504    0.3038613649    0.8082011445
C47        C    0.0866239815    0.3289564134    0.8332981048
N48        N    0.0788918677    0.3540527241    0.8583935203
C49        C    0.7050015693    0.6873903741    0.1917297296
N50        N    0.6721760359    0.6622962157    0.1666330509
C51        C    0.6799060393    0.6371981799    0.1415378714
N52        N    0.7204615760    0.6371943026    0.1415393707
C53        C    0.7532871093    0.6622884610    0.1666360495
N54        N    0.7455571060    0.6873864967    0.1917312289
C55        C    0.6282954136    0.9704867216    0.4748941201
N56        N    0.5877379523    0.9704867523    0.4748956939
C57        C    0.5800074301    0.9955827228    0.4999924980
N58        N    0.6128343692    1.0206786625    0.5250877282
C59        C    0.6533918305    1.0206786317    0.5250861544
N60        N    0.6611223527    0.9955826613    0.4999893504
C61        C    0.3200433151    0.3539886883    0.8584308652
N62        N    0.2794879721    0.3539929518    0.8584270801
C63        C    0.2466604327    0.3288989374    0.8333292889
N64        N    0.2543882363    0.3038006596    0.8082352827
C65        C    0.2949435793    0.3037963961    0.8082390678
N66        N    0.3277711187    0.3288904104    0.8333368591
C67        C    0.9616036333    0.6371143801    0.1415772253
N68        N    0.9944292217    0.6622073327    0.1666742118
C69        C    0.9867003811    0.6873063766    0.1917692060
N70        N    0.9461459520    0.6873124679    0.1917672137
C71        C    0.9133203636    0.6622195152    0.1666702272
N72        N    0.9210492042    0.6371204713    0.1415752330
C73        C    0.3716120188    0.3421255154    0.5250760345
N74        N    0.3387859107    0.3343895327    0.4999833239
C75        C    0.3465222416    0.3672176764    0.4748911619
N76        N    0.3870846806    0.4077818028    0.4748917104
C77        C    0.4199107887    0.4155177855    0.4999844210
N78        N    0.4121744578    0.3826896418    0.5250765831
C79        C    0.0382734698    0.6754668793    0.8584147615
N80        N    0.0054473611    0.6677310637    0.8333220993
C81        C    0.0131829176    0.7005601480    0.8082310568
N82        N    0.0537445829    0.7411250478    0.8082326764
C83        C    0.0865706916    0.7488608633    0.8333253386
N84        N    0.0788351350    0.7160317790    0.8584163811
C85        C    0.7049419066    0.0088010150    0.1917459463
N86        N    0.6721136180    0.0010654189    0.1666554275
C87        C    0.6798496627    0.0338920550    0.1415619084
N88        N    0.7204139959    0.0744542871    0.1415589080
C89        C    0.7532422845    0.0821898832    0.1666494268
N90        N    0.7455062398    0.0493632472    0.1917429459
C91        C    0.9748303557    0.6238831339    0.5250653088
N92        N    0.9999250903    0.6567080637    0.4999687739
C93        C    1.0250243687    0.6489792744    0.4748732340
N94        N    1.0250289124    0.6084255552    0.4748742289
C95        C    0.9999341777    0.5756006255    0.4999707637
N96        N    0.9748348994    0.5833294148    0.5250663037
C97        C    0.6917182535    0.9823287320    0.8082124685
N98        N    0.6666211482    0.9900574561    0.8333077139
C99        C    0.6415234857    0.9572299098    0.8584040752
N100       N    0.6415229284    0.9166736393    0.8584051912
C101       C    0.6666200337    0.9089449152    0.8333099459
N102       N    0.6917176963    0.9417724616    0.8082135845
C103       C    0.3584062689    0.3156694527    0.1415563814
N104       N    0.3333088492    0.3233983718    0.1666511963
C105       C    0.3082126400    0.2905719049    0.1917486943
N106       N    0.3082138505    0.2500165189    0.1917513775
C107       C    0.3333112702    0.2422875998    0.1666565626
N108       N    0.3584074794    0.2751140667    0.1415590646
O109       O    0.9580412023    0.4384713273    1.0264290877
O110       O    0.9757815056    0.5196084762    0.9622198850
O111       O    0.9757946479    0.4473536453    0.9622093374
O112       O    0.9580280525    0.5107314217    1.0264396334
O113       O    1.0241159665    0.5437929749    1.0377642708
O114       O    1.0418811602    0.4804144986    0.9735386361
O115       O    1.0418694195    0.5526700294    0.9735445223
O116       O    1.0241291162    0.4715328805    1.0377537250
Cu117     Cu    0.9608809991    0.4760247703    0.9932890152
Cu118     Cu    1.0390296227    0.5151165864    1.0066845949
C119       C    0.9884703863    0.4430387198    1.0415586097
C120       C    1.0114402354    0.5481026369    0.9584150003
C121       C    1.0114539352    0.4545367904    0.9584065306
C122       C    0.9884566866    0.5366045663    1.0415670794
O123       O    0.6247212613    0.7718206032    0.3597701113
O124       O    0.6424665754    0.8529547004    0.2955565938
O125       O    0.6424746809    0.7806973498    0.2955503559
O126       O    0.6247131486    0.8440832174    0.3597763470
O127       O    0.6908010677    0.8771421361    0.3711009671
O128       O    0.7085611983    0.8137555691    0.3068796373
O129       O    0.7085544944    0.8860136191    0.3068812138
O130       O    0.6908091803    0.8048795218    0.3710947314
Cu131     Cu    0.6275635631    0.8093727606    0.3266278829
Cu132     Cu    0.7057121925    0.8484614616    0.3400234423
C133       C    0.6551497090    0.7763871283    0.3749002610
C134       C    0.6781260467    0.8814470940    0.2917510642
C135       C    0.6781332242    0.7878779853    0.2917481752
C136       C    0.6551425315    0.8699562370    0.3749031500
O137       O    0.3752127194    0.1470773127    0.6402125246
O138       O    0.3574580818    0.2104693561    0.7044294135
O139       O    0.3574597060    0.1382087646    0.7044323499
O140       O    0.3752111016    0.2193431746    0.6402095906
O141       O    0.3091231107    0.1862859403    0.6288852301
O142       O    0.2913731167    0.1051522320    0.6931033281
O143       O    0.2913700909    0.1774121218    0.6931050531
O144       O    0.3091247285    0.1140200784    0.6288881642
Cu145     Cu    0.3723657621    0.1817913751    0.6733564151
Cu146     Cu    0.2942170482    0.1426980595    0.6599611625
C147       C    0.3447856104    0.1212007921    0.6250820077
C148       C    0.3217971998    0.2032886424    0.7082355700
C149       C    0.3218026214    0.1097186556    0.7082341838
C150       C    0.3447801889    0.2147707789    0.6250833938
O151       O    0.4759162380    0.4473588469    0.9622166903
O152       O    0.5570694982    0.5107669179    1.0264272434
O153       O    0.4847967021    0.4384909253    1.0264335443
O154       O    0.5481943058    0.5196401042    0.9622103892
O155       O    0.5151524440    0.5526740712    0.9735477539
O156       O    0.4517542486    0.4715254860    1.0377662108
O157       O    0.5240276364    0.5438008849    1.0377646081
O158       O    0.4428743763    0.4803928139    0.9735540549
Cu159     Cu    0.5195100675    0.4760497076    0.9932893953
Cu160     Cu    0.4804338070    0.5151100242    1.0066919030
C161       C    0.4474286762    0.4545264345    0.9584182687
C162       C    0.5525151982    0.5366332973    1.0415630296
C163       C    0.4589278878    0.4430415681    1.0415653836
C164       C    0.5410159867    0.5481181637    0.9584159148
O165       O    0.1818152805    0.8860018230    0.3068865395
O166       O    0.1184105577    0.8048488126    0.3710974192
O167       O    0.1906867054    0.8771214543    0.3711028089
O168       O    0.1095338613    0.8137239166    0.3068811521
O169       O    0.1425733101    0.7806876003    0.2955435575
O170       O    0.2237254524    0.8440858377    0.3597605532
O171       O    0.1514500066    0.7718124964    0.3597598246
O172       O    0.2148547293    0.8529655068    0.2955489449
Cu173     Cu    0.1470965012    0.8484381459    0.3400286330
Cu174     Cu    0.1861687859    0.8093761735    0.3266177312
C175       C    0.2076847778    0.8814493882    0.2917502914
C176       C    0.1255805093    0.7763649312    0.3748960727
C177       C    0.2191706404    0.8699538403    0.3748978640
C178       C    0.1140946467    0.7878604791    0.2917485001
O179       O    0.8092602758    0.1140258259    0.6288800794
O180       O    0.8904107509    0.1774287054    0.6930939313
O181       O    0.8181356782    0.1051549885    0.6930973018
O182       O    0.8815406203    0.1863048073    0.6288767089
O183       O    0.8485011362    0.2193415305    0.6402127038
O184       O    0.7850956028    0.1381923057    0.7044285984
O185       O    0.8573712668    0.2104654286    0.7044299261
O186       O    0.7762207917    0.1470625491    0.6402160743
Cu187     Cu    0.8528524956    0.1427138391    0.6599545589
Cu188     Cu    0.8137790470    0.1817774154    0.6733554466
C189       C    0.7807743134    0.1211955571    0.6250804865
C190       C    0.8858572291    0.2032956974    0.7082295190
C191       C    0.7922669711    0.1097069153    0.7082280783
C192       C    0.8743645715    0.2147843393    0.6250819272
O193       O    0.4428600077    0.9536549772    0.9735467198
O194       O    0.5239985991    0.9713975463    1.0377579326
O195       O    0.4517390362    0.9714065163    1.0377666133
O196       O    0.5151248344    0.9536460000    0.9735380411
O197       O    0.5481852391    1.0197317170    0.9622139361
O198       O    0.4847987413    1.0374908319    1.0264378469
O199       O    0.5570590038    1.0374832633    1.0264338276
O200       O    0.4759204123    1.0197406942    0.9622226148
Cu201     Cu    0.4804142767    0.9564961074    1.0066877488
Cu202     Cu    0.5195047347    1.0346421331    0.9932927986
C203       C    0.4474266131    0.9840827286    0.9584171676
C204       C    0.5524923983    1.0070555118    1.0415633798
C205       C    0.4589204246    1.0070638090    1.0415694321
C206       C    0.5409985868    0.9840744314    0.9584111153
O207       O    0.1514709938    0.3708342358    0.3597631527
O208       O    0.2148631905    0.3530790676    0.2955448744
O209       O    0.1426005914    0.3530819663    0.2955433838
O210       O    0.2237388635    0.3708313434    0.3597646408
O211       O    0.1906797736    0.3047457550    0.3710892114
O212       O    0.1095422033    0.2869977793    0.3068726158
O213       O    0.1818041006    0.2869934792    0.3068694450
O214       O    0.1184119039    0.3047486473    0.3710877233
Cu215     Cu    0.1861853021    0.3679867940    0.3266185483
Cu216     Cu    0.1470897923    0.2898409210    0.3400140494
C217       C    0.1255935227    0.3404084064    0.3748939796
C218       C    0.2076815717    0.3174193086    0.2917386181
C219       C    0.1141089853    0.3174263804    0.2917418765
C220       C    0.2191661091    0.3404013346    0.3748907212
O221       O    0.8573261968    0.6380642809    0.7044228138
O222       O    0.7761903380    0.6203237861    0.6402096680
O223       O    0.8484508205    0.6203166543    0.6402022497
O224       O    0.7850604435    0.6380714059    0.7044302324
O225       O    0.8181208883    0.7041572755    0.6931066793
O226       O    0.8815118567    0.6864037093    0.6288833949
O227       O    0.8092507828    0.6864096556    0.6288861149
O228       O    0.8903866416    0.7041501505    0.6930992607
Cu229     Cu    0.8137393727    0.6231627431    0.6733475520
Cu230     Cu    0.8528376070    0.7013111935    0.6599613767
C231       C    0.8858204845    0.6737237587    0.7082285235
C232       C    0.7807564951    0.6507501778    0.6250804051
C233       C    0.8743278595    0.6507406630    0.6250766041
C234       C    0.7922491201    0.6737332735    0.7082323246
C675       C    0.2446311435    0.2606608372    0.2299898054
C676       C    0.2834251245    0.2971915544    0.2164027821
C677       C    0.2967410869    0.3405263239    0.2281566329
C678       C    0.2712630682    0.3473303763    0.2534975070
C679       C    0.2324690872    0.3107996591    0.2670845303
C680       C    0.2191531249    0.2674648895    0.2553306795
H681       H    0.2347738727    0.2285818519    0.2212889029
H682       H    0.3254566751    0.3675676024    0.2180999385
H683       H    0.2811203390    0.3794093616    0.2621984095
H684       H    0.1904375366    0.2404236111    0.2653873739
C665       C    0.4293424855    0.3746485839    0.1216927432
C666       C    0.3831907335    0.3470741368    0.1169027459
C667       C    0.3625153264    0.3517810633    0.0867708852
C668       C    0.3879916712    0.3840624369    0.0614290217
C669       C    0.4341434232    0.4116368840    0.0662190190
C670       C    0.4548188303    0.4069299575    0.0963508798
H671       H    0.4446476570    0.3711642358    0.1439981466
H672       H    0.3283533093    0.3313707045    0.0832243926
H673       H    0.3726864997    0.3875467851    0.0391236183
H674       H    0.4889808474    0.4273403163    0.0998973723
C655       C    0.7374414290    1.0592475783    0.7921158814
C656       C    0.7165100627    1.0137357523    0.7835598028
C657       C    0.7210612460    1.0005059977    0.7496641949
C658       C    0.7465437956    1.0327880690    0.7243246655
C659       C    0.7674751619    1.0782998950    0.7328807441
C660       C    0.7629239786    1.0915296497    0.7667763520
H661       H    0.7340723712    1.0690410331    0.8172074353
H662       H    0.7055680671    0.9668178871    0.7433299433
H663       H    0.7499128534    1.0229946142    0.6992331116
H664       H    0.7784171574    1.1252177602    0.7731106036
C645       C    0.5789504684    0.9661225699    0.8728515466
C646       C    0.6167363534    0.9638491525    0.8830635154
C647       C    0.6290469213    0.9683787532    0.9186195641
C648       C    0.6035716041    0.9751817713    0.9439636439
C649       C    0.5657857191    0.9774551887    0.9337516751
C650       C    0.5534751512    0.9729255880    0.8981956264
H651       H    0.5698374506    0.9627694889    0.8465308352
H652       H    0.6570162887    0.9666961211    0.9261795523
H653       H    0.6126846219    0.9785348523    0.9702843553
H654       H    0.5255057838    0.9746082201    0.8906356382
C635       C    0.9615116741    0.6335807761    0.5854056026
C636       C    0.9500497764    0.6305053091    0.5497247743
C637       C    0.9131172099    0.6342364315    0.5393901281
C638       C    0.8876465411    0.6410430209    0.5647363103
C639       C    0.8991084389    0.6441184879    0.6004171386
C640       C    0.9360410053    0.6403873655    0.6107517847
H641       H    0.9888513662    0.6308187763    0.5930559250
H642       H    0.9046319851    0.6319600998    0.5129789788
H643       H    0.8603068491    0.6438050206    0.5570859878
H644       H    0.9445262301    0.6426636971    0.6371629341
C625       C    1.0852786697    0.7219820743    0.4607079268
C626       C    1.0498179839    0.6803881067    0.4502223747
C627       C    1.0398417532    0.6710781352    0.4143991013
C628       C    1.0653262082    0.7033621313    0.3890613799
C629       C    1.1007868940    0.7449560989    0.3995469320
C630       C    1.1107631248    0.7542660703    0.4353702055
H631       H    1.0926636717    0.7288738713    0.4872264540
H632       H    1.0135935638    0.6402901337    0.4066365992
H633       H    1.0579412062    0.6964703343    0.3625428528
H634       H    1.1370113142    0.7850540719    0.4431327076
C615       C    0.6563147428    0.0613832551    0.0930510038
C616       C    0.6484461464    0.0272747503    0.1169044580
C617       C    0.6083024341   -0.0136347213    0.1154160983
C618       C    0.5760273183   -0.0204356882    0.0900742844
C619       C    0.5838959146    0.0136728165    0.0662208302
C620       C    0.6240396269    0.0545822882    0.0677091899
H621       H    0.6860315168    0.0916668899    0.0941527766
H622       H    0.6024768566   -0.0388830100    0.1330722932
H623       H    0.5463105442   -0.0507193231    0.0889725116
H624       H    0.6298652044    0.0798305768    0.0500529950
C605       C    0.6823271351   -0.0975225159    0.2312093788
C606       C    0.6847387011   -0.0871480781    0.2670903118
C607       C    0.6939455426   -0.0445015077    0.2776294382
C608       C    0.7007408182   -0.0122293751    0.2522876317
C609       C    0.6983292522   -0.0226038129    0.2164066988
C610       C    0.6891224107   -0.0652503833    0.2058675723
H611       H    0.6755116810   -0.1290920550    0.2234076878
H612       H    0.6957308665   -0.0368210360    0.3041887107
H613       H    0.7075562723    0.0193401640    0.2600893227
H614       H    0.6873370867   -0.0729308550    0.1793082998
C595       C   -0.0564762408    0.6956358265    0.7932920359
C596       C   -0.0182232326    0.6939425948    0.7835715516
C597       C   -0.0122452907    0.6854487217    0.7485093058
C598       C   -0.0445203570    0.6786480802    0.7231675444
C599       C   -0.0827733652    0.6803413119    0.7328880288
C600       C   -0.0887513071    0.6888351850    0.7679502745
H601       H   -0.0609014705    0.7019234988    0.8192472048
H602       H    0.0160696392    0.6841951288    0.7413131282
H603       H   -0.0400951273    0.6723604079    0.6972123755
H604       H   -0.1170662370    0.6900887779    0.7751464521
C585       C    0.0674104386    0.6492831701    0.9039331976
C586       C    0.0316565455    0.6440595751    0.8830742566
C587       C   -0.0108970405    0.6065611631    0.8875559399
C588       C   -0.0176967334    0.5742863460    0.9128965642
C589       C    0.0180571597    0.5795099410    0.9337555052
C590       C    0.0606107457    0.6170083531    0.9292738219
H591       H    0.0989111450    0.6770417349    0.9006155879
H592       H   -0.0373632918    0.6026934899    0.8721163677
H593       H   -0.0491974398    0.5465277813    0.9162141739
H594       H    0.0870769970    0.6208760262    0.9447133941
C575       C    0.3066667336    0.3952063961    0.4419122526
C576       C    0.3151179367    0.3606051281    0.4502324017
C577       C    0.2912953785    0.3192082375    0.4332110906
C578       C    0.2590216172    0.3124126148    0.4078696305
C579       C    0.2505704140    0.3470138829    0.3995494814
C580       C    0.2743929723    0.3884107735    0.4165707925
H581       H    0.3243016144    0.4258508477    0.4545124439
H582       H    0.2975501751    0.2935951917    0.4393690967
H583       H    0.2413867364    0.2817681633    0.3952694392
H584       H    0.2681381757    0.4140238192    0.4104127863
C565       C    0.4009345699    0.3154955130    0.5701155944
C566       C    0.3649954860    0.3107207700    0.5497371170
C567       C    0.3222570200    0.2736734042    0.5547012367
C568       C    0.3154576378    0.2414007813    0.5800438339
C569       C    0.3513967216    0.2461755243    0.6004223113
C570       C    0.3941351877    0.2832228902    0.5954581916
H571       H    0.4325721356    0.3429201864    0.5664408564
H572       H    0.2956536853    0.2701379839    0.5396173172
H573       H    0.2838200721    0.2139761079    0.5837185719
H574       H    0.4207385223    0.2867583104    0.6105421111
C555       C    1.0584272545    0.7495470845    0.2061468642
C556       C    1.0181122155    0.7121001835    0.2164212814
C557       C    1.0100824749    0.7001365269    0.2520332702
C558       C    1.0423677733    0.7256197712    0.2773708419
C559       C    1.0826828123    0.7630666722    0.2670964248
C560       C    1.0907125528    0.7750303288    0.2314844359
H561       H    1.0643713481    0.7584032978    0.1797847426
H562       H    0.9802411723    0.6724180852    0.2596394843
H563       H    1.0364236796    0.7167635579    0.3037329635
H564       H    1.1205538555    0.8027487705    0.2238782219
C545       C    0.9800882631    0.6284430564    0.0824570585
C546       C    0.9682248954    0.6123312833    0.1169173336
C547       C    0.9631667921    0.5707477001    0.1260324274
C548       C    0.9699720567    0.5452758899    0.1006872462
C549       C    0.9818354245    0.5613876630    0.0662269712
C550       C    0.9868935277    0.6029712463    0.0571118773
H551       H    0.9838325733    0.6592257089    0.0757095215
H552       H    0.9543854094    0.5588205069    0.1515400890
H553       H    0.9662277466    0.5144932374    0.1074347832
H554       H    0.9956749105    0.6148984395    0.0316042157
C535       C    0.3240827667    0.2561421709    0.7926523395
C536       C    0.3015647169    0.2790147965    0.7835817997
C537       C    0.2858523398    0.2764151449    0.7491667791
C538       C    0.2926580124    0.2509428676    0.7238222983
C539       C    0.3151760622    0.2280702420    0.7328928382
C540       C    0.3308884393    0.2306698936    0.7673078587
H541       H    0.3357140069    0.2580665883    0.8181283937
H542       H    0.2691840621    0.2933452988    0.7424517086
H543       H    0.2810267722    0.2490184502    0.6983462441
H544       H    0.3475567170    0.2137397397    0.7740229292
C525       C    0.3688229084    0.3585346095    0.9050147600
C526       C    0.3514525652    0.3787781553    0.8830846349
C527       C    0.3663656524    0.4245011072    0.8864944419
C528       C    0.3986490829    0.4499805133    0.9118343739
C529       C    0.4160194262    0.4297369675    0.9337644990
C530       C    0.4011063389    0.3840140156    0.9303546921
H531       H    0.3577833504    0.3246877490    0.9024906172
H532       H    0.3535086580    0.4394867549    0.8702619491
H533       H    0.4096886410    0.4838273738    0.9143585167
H534       H    0.4139633333    0.3690283679    0.9465871848
C515       C    0.6073938550    0.9302089236    0.4204356918
C516       C    0.6349151004    0.9456989464    0.4502393729
C517       C    0.6692402179    0.9357115021    0.4547023162
C518       C    0.6760440901    0.9102340349    0.4293615783
C519       C    0.6485228447    0.8947440121    0.3995578972
C520       C    0.6141977272    0.9047314565    0.3950949539
H521       H    0.5819843524    0.9376022266    0.4171319545
H522       H    0.6896124323    0.9471768458    0.4767630363
H523       H    0.7014535927    0.9028407319    0.4326653156
H524       H    0.5938255128    0.8932661127    0.3730342338
C505       C    0.7051588164    1.0262436999    0.5694479099
C506       C    0.6848001811    1.0454628153    0.5497414836
C507       C    0.6967244367    1.0901562099    0.5553768942
C508       C    0.7290073275    1.1156304890    0.5807187311
C509       C    0.7493659628    1.0964113736    0.6004251574
C510       C    0.7374417072    1.0517179790    0.5947897468
H511       H    0.6963317700    0.9931589793    0.5652762423
H512       H    0.6816554246    1.1043835452    0.5407904459
H513       H    0.7378343739    1.1487152096    0.5848903987
H514       H    0.7525107193    1.0374906437    0.6093761951
C495       C    0.7028603759    0.7534859515    0.2071667030
C496       C    0.6983766288    0.7121676516    0.2163913247
C497       C    0.6870836497    0.6963158798    0.2509635741
C498       C    0.6802744176    0.7217824079    0.2763112018
C499       C    0.6847581647    0.7631007078    0.2670865801
C500       C    0.6960511438    0.7789524796    0.2325143307
H501       H    0.7112201137    0.7652203800    0.1815742586
H502       H    0.6837644386    0.6657317194    0.2577927005
H503       H    0.6719146798    0.7100479794    0.3019036462
H504       H    0.6993703548    0.8095366400    0.2256852043
C485       C    0.6247423765    0.5981450815    0.0558402313
C486       C    0.5839256775    0.5614293590    0.0662136063
C487       C    0.5753939198    0.5502000160    0.1019238255
C488       C    0.6076788611    0.5756863956    0.1272606698
C489       C    0.6484955601    0.6124021182    0.1168872948
C490       C    0.6570273178    0.6236314611    0.0811770756
H491       H    0.6310580932    0.6064577121    0.0294053937
H492       H    0.5451812742    0.5230228133    0.1096032909
H493       H    0.6013631443    0.5673737651    0.1536955074
H494       H    0.6872399633    0.6508086639    0.0734976102
C475       C    0.8221180567    0.6804000840    0.1380780454
C476       C    0.7927527226    0.6622714583    0.1666444780
C477       C    0.8039384024    0.6441253624    0.1952195709
C478       C    0.8444894163    0.6441078922    0.1952282312
C479       C    0.8738547503    0.6622365179    0.1666617987
C480       C    0.8626690705    0.6803826138    0.1380867057
H481       H    0.8138377482    0.6938329083    0.1169250545
H482       H    0.7822026405    0.6307060439    0.2163652471
H483       H    0.8527697247    0.6306750679    0.2163812221
H484       H    0.8844048324    0.6938019323    0.1169410295
C465       C   -0.0597916706    0.2768389483    0.7839300708
C466       C   -0.0181654960    0.2790669929    0.7835511237
C467       C   -0.0088240081    0.2558072068    0.7578356123
C468       C   -0.0411086947    0.2303193761    0.7324990479
C469       C   -0.0827348693    0.2280913315    0.7328779949
C470       C   -0.0920763572    0.2513511176    0.7585935063
H471       H   -0.0667067980    0.2940572316    0.8029662286
H472       H    0.0219878340    0.2574556614    0.7575543032
H473       H   -0.0341935673    0.2131010929    0.7134628900
H474       H   -0.1228881993    0.2497026630    0.7588748154
C455       C    0.1578739541    0.3519493815    0.8596147069
C456       C    0.1260897385    0.3289422395    0.8333057950
C457       C    0.1348579915    0.3059205334    0.8070047849
C458       C    0.1754104601    0.3059059693    0.8070126868
C459       C    0.2071946757    0.3289131113    0.8333215987
C460       C    0.1984264227    0.3519348174    0.8596226088
H461       H    0.1513831695    0.3689914237    0.8790842858
H462       H    0.1113317056    0.2888900001    0.7875301895
H463       H    0.1819012448    0.2888639271    0.7875431080
H464       H    0.2219527087    0.3689653507    0.8790972042
C445       C   -0.0059872253    0.3585976974    0.9049140245
C446       C    0.0317069498    0.3788300434    0.8830525763
C447       C    0.0625886541    0.4245277343    0.8865378048
C448       C    0.0557761833    0.4499930792    0.9118844815
C449       C    0.0180820082    0.4297607333    0.9337459297
C450       C   -0.0127996961    0.3840630424    0.9302607012
H451       H   -0.0288477076    0.3247695366    0.9023340502
H452       H    0.0904907259    0.4395050910    0.8703561489
H453       H    0.0786366657    0.4838212400    0.9144644558
H454       H   -0.0407017678    0.3690856857    0.9464423571
C435       C    0.3595990624    1.0813603762    0.5392986791
C436       C    0.3650162623    1.0454585823    0.5497482140
C437       C    0.3636284707    1.0350342224    0.5855378039
C438       C    0.3568234792    1.0605116565    0.6108778589
C439       C    0.3514062792    1.0964134504    0.6004283239
C440       C    0.3527940708    1.1068378103    0.5646387341
H441       H    0.3606263886    1.0890771102    0.5128050866
H442       H    0.3676382190    1.0084595123    0.5932736451
H443       H    0.3557961529    1.0527949226    0.6373714514
H444       H    0.3487843225    1.1334125204    0.5569028928
C425       C    0.5165146466    0.9881116255    0.4685972717
C426       C    0.5405275968    0.9955810494    0.4999939180
C427       C    0.5239799296    1.0030487542    0.5313920231
C428       C    0.4834193122    1.0030470351    0.5313934820
C429       C    0.4594063621    0.9955776112    0.4999968357
C430       C    0.4759540293    0.9881099064    0.4685987306
H431       H    0.5287642184    0.9825835843    0.4453545185
H432       H    0.5417537062    1.0085778316    0.5546327028
H433       H    0.4711697404    1.0085750763    0.5546362352
H434       H    0.4581802526    0.9825808290    0.4453580509
C415       C    0.2862754282    0.9370103405    0.3907691323
C416       C    0.2505774613    0.8947408512    0.3995565474
C417       C    0.2471588110    0.8779469672    0.4336876751
C418       C    0.2794381276    0.9034225725    0.4590313877
C419       C    0.3151360944    0.9456920617    0.4502439727
C420       C    0.3185547447    0.9624859457    0.4161128450
H421       H    0.2888061174    0.9494421767    0.3655032326
H422       H    0.2207351947    0.8466587101    0.4401931686
H423       H    0.2769074384    0.8909907362    0.4842972874
H424       H    0.3449783611    0.9937742029    0.4096073515
C405       C    0.8130188662    0.1419490018    0.1347010934
C406       C    0.7927334523    0.1216744742    0.1666459594
C407       C    0.8130169803    0.1419621319    0.1985872636
C408       C    0.8535859221    0.1825243173    0.1985837016
C409       C    0.8738713360    0.2027988450    0.1666388355
C410       C    0.8535878081    0.1825111872    0.1346975314
H411       H    0.7980037871    0.1269308655    0.1110562319
H412       H    0.7980024309    0.1269556407    0.2222337508
H413       H    0.8686010012    0.1975424536    0.2222285631
H414       H    0.8686023574    0.1975176784    0.1110510442
C395       C    1.0539586711    0.3403394629    0.2226525949
C396       C    1.0181599747    0.2972023773    0.2163902074
C397       C    1.0146338553    0.2608676620    0.2354724538
C398       C    1.0469064323    0.2676700322    0.2608170877
C399       C    1.0827051287    0.3108071178    0.2670794751
C400       C    1.0862312481    0.3471418332    0.2479972287
H401       H    1.0565689153    0.3672365899    0.2085267761
H402       H    0.9881356758    0.2289365946    0.2308376608
H403       H    1.0442961880    0.2407729053    0.2749429064
H404       H    1.1127294275    0.3790729006    0.2526320217
C385       C    0.9385629511    0.3358963189    0.0885716068
C386       C    0.9682714028    0.3470791731    0.1168892005
C387       C    1.0047738221    0.3905382086    0.1198692026
C388       C    1.0115677898    0.4228143898    0.0945316111
C389       C    0.9818593380    0.4116315356    0.0662140174
C390       C    0.9453569187    0.3681725001    0.0632340152
H391       H    0.9115416796    0.3037253446    0.0863656312
H392       H    1.0267650677    0.3988170930    0.1408298791
H393       H    1.0385890612    0.4549853641    0.0967375867
H394       H    0.9233656731    0.3598936157    0.0422733387
C375       C    0.1868875465    0.8492047022    0.8652783682
C376       C    0.2071821914    0.8694844461    0.8333372949
C377       C    0.1869133047    0.8491965947    0.8013922005
C378       C    0.1463497731    0.8086289995    0.8013881794
C379       C    0.1260551283    0.7883492556    0.8333292527
C380       C    0.1463240150    0.8086371070    0.8652743471
H381       H    0.2018917873    0.8642229818    0.8889260355
H382       H    0.2019346872    0.8642069470    0.7777485206
H383       H    0.1313455323    0.7936107199    0.7777405121
H384       H    0.1313026324    0.7936267547    0.8889180270
C365       C    0.3745247539    0.9401900611    0.8809635204
C366       C    0.3514644655    0.9638820716    0.8830869710
C367       C    0.3606815716    0.9943686838    0.9105481462
C368       C    0.3929589661    1.0011632855    0.9358858708
C369       C    0.4160192544    0.9774712751    0.9337624202
C370       C    0.4068021483    0.9469846628    0.9063012450
H371       H    0.3677017013    0.9176220494    0.8606351180
H372       H    0.3436127198    1.0119063906    0.9121207859
H373       H    0.3997820186    1.0237312972    0.9562142733
H374       H    0.4238710001    0.9294469561    0.9047286054
C355       C    0.3422599774    1.0361001189    0.7653834968
C356       C    0.3015840850    1.0137700627    0.7835855476
C357       C    0.2677085458    1.0237115965    0.7764437319
C358       C    0.2745088990    1.0559831865    0.7510998655
C359       C    0.3151847914    1.0783132428    0.7328978148
C360       C    0.3490603306    1.0683717090    0.7400396305
H361       H    0.3673366752    1.0287408017    0.7706702955
H362       H    0.2375993227    1.0071832828    0.7899165991
H363       H    0.2494322011    1.0633425038    0.7458130669
H364       H    0.3791695536    1.0849000226    0.7265667632
C345       C    0.6833553817    0.5938587284    0.5667515067
C346       C    0.6847999218    0.6305455452    0.5497423561
C347       C    0.7185197013    0.6740282420    0.5580733514
C348       C    0.7507949407    0.6808241220    0.5834134973
C349       C    0.7493504005    0.6441373051    0.6004226479
C350       C    0.7156306211    0.6006546083    0.5920916526
H351       H    0.6583939865    0.5616702385    0.5605844063
H352       H    0.7195900119    0.7011850695    0.5454835022
H353       H    0.7757563359    0.7130126118    0.5895805977
H354       H    0.7145603105    0.5734977808    0.6046815018
C335       C    0.6201753014    0.6673959003    0.4156141201
C336       C    0.6349238173    0.6804320906    0.4502421957
C337       C    0.6564753990    0.7257431708    0.4595286873
C338       C    0.6632784647    0.7580180608    0.4341871032
C339       C    0.6485299488    0.7449818706    0.3995590275
C340       C    0.6269783672    0.6996707903    0.3902725360
H341       H    0.6042215332    0.6338539318    0.4087397043
H342       H    0.6673928801    0.7353939465    0.4851605597
H343       H    0.6792322329    0.7915600293    0.4410615190
H344       H    0.6160608861    0.6900200147    0.3646406636
C325       C    0.4999546035    0.5361322031    0.4999893270
C326       C    0.5405204524    0.5361443848    0.4999899009
C327       C    0.5405235858    0.4955881554    0.4999886319
C328       C    0.4999608702    0.4550197441    0.4999867890
C329       C    0.4593950213    0.4550075624    0.4999862150
C330       C    0.4593918879    0.4955637918    0.4999874840
H331       H    0.4999522840    0.5661543470    0.4999902664
H332       H    0.5705502831    0.4955958888    0.4999890567
H333       H    0.4999631897    0.4249976002    0.4999858496
H334       H    0.4293651906    0.4955560584    0.4999870592
C315       C    0.3698575515    0.0209445733    0.0815629275
C316       C    0.3831967386    0.0273065437    0.1169185718
C317       C    0.4220066015    0.0268595992    0.1269295240
C318       C    0.4474772774    0.0200506843    0.1015848317
C319       C    0.4341380903    0.0136887139    0.0662291874
C320       C    0.3953282274    0.0141356584    0.0562182353
H321       H    0.3411281724    0.0212754283    0.0741522227
H322       H    0.4318814486    0.0315686929    0.1530999631
H323       H    0.4762066565    0.0197198293    0.1089955365
H324       H    0.3854533803    0.0094265647    0.0300477961
C305       C    0.3333168885    0.1419659664    0.1347243013
C306       C    0.3333187367    0.1216960078    0.1666695742
C307       C    0.3333180738    0.1419830651    0.1986104711
C308       C    0.3333155627    0.1825400809    0.1986060951
C309       C    0.3333137145    0.2028100395    0.1666608222
C310       C    0.3333143774    0.1825229822    0.1347199253
H311       H    0.3333173792    0.1269482746    0.1110797412
H312       H    0.3333194418    0.1269799558    0.2222572594
H313       H    0.3333150719    0.1975577726    0.2222506551
H314       H    0.3333130094    0.1975260915    0.1110731369
C295       C    0.2739507141   -0.0095118775    0.2487135871
C296       C    0.2834336893   -0.0225734802    0.2164222311
C297       C    0.2674364389   -0.0679196255    0.2094695357
C298       C    0.2419562133   -0.1002041681    0.2348081965
C299       C    0.2324732381   -0.0871425655    0.2670995525
C300       C    0.2484704885   -0.0417964202    0.2740522479
H301       H    0.2857928345    0.0240560482    0.2538603876
H302       H    0.2744551972   -0.0775892124    0.1855673687
H303       H    0.2301140929   -0.1337720939    0.2296613961
H304       H    0.2414517302   -0.0321268333    0.2979544149
C285       C    0.7071954926    0.8289280871    0.8333285117
C286       C    0.6666340457    0.7883584098    0.8333206809
C287       C    0.6260678862    0.7883446474    0.8333092396
C288       C    0.6260631737    0.8289005623    0.8333056292
C289       C    0.6666246206    0.8694702396    0.8333134600
C290       C    0.7071907800    0.8694840020    0.8333249013
H291       H    0.7372249872    0.8289382749    0.8333369812
H292       H    0.5960431636    0.7583151160    0.8333034429
H293       H    0.5960336791    0.8288903745    0.8332971597
H294       H    0.7372155027    0.8995135334    0.8333306980
C275       C    0.7577460866    0.6982661931    0.7928425662
C276       C    0.7165186873    0.6939742886    0.7835737897
C277       C    0.7007646185    0.6828739446    0.7489625192
C278       C    0.7262379490    0.6760655052    0.7236200252
C279       C    0.7674653482    0.6803574097    0.7328888017
C280       C    0.7832194171    0.6914577537    0.7675000722
H281       H    0.7694081895    0.7064833309    0.8184638963
H282       H    0.6702477456    0.6796967409    0.7421007085
H283       H    0.7145758461    0.6678483675    0.6979986951
H284       H    0.8137362900    0.6946349574    0.7743618829
C265       C    0.5729088371    0.6340885402    0.8901969873
C266       C    0.6167566974    0.6440927922    0.8830792209
C267       C    0.6351278155    0.6218142619    0.9013022985
C268       C    0.6096510732    0.5895314796    0.9266431425
C269       C    0.5658032129    0.5795272276    0.9337609089
C270       C    0.5474320949    0.6018057579    0.9155378312
H271       H    0.5593094381    0.6505804393    0.8767071766
H272       H    0.6675844272    0.6292186686    0.8960343299
H273       H    0.6232504722    0.5730395806    0.9401329532
H274       H    0.5149754831    0.5944013512    0.9208057999
C255       C   -0.0306098308    0.3100790777    0.5820279879
C256       C   -0.0498838879    0.3107644150    0.5497509630
C257       C   -0.0946381639    0.2791653485    0.5428126894
C258       C   -0.1201183827    0.2468809446    0.5681514408
C259       C   -0.1008443255    0.2461956073    0.6004284656
C260       C   -0.0560900495    0.2777946738    0.6073667392
H261       H    0.0025199579    0.3334705945    0.5871641124
H262       H   -0.1089061688    0.2796716327    0.5189211307
H263       H   -0.1532481714    0.2234894278    0.5630153162
H264       H   -0.0418220446    0.2772883896    0.6312582979
C245       C    0.0374969666    0.3560040590    0.4147006772
C246       C    0.0498765760    0.3606478672    0.4502452560
C247       C    0.0877256000    0.3584835929    0.4604434232
C248       C    0.1131950145    0.3516755104    0.4350970116
C249       C    0.1008154051    0.3470317023    0.3995524328
C250       C    0.0629663811    0.3491959766    0.3893542656
H251       H    0.0094788579    0.3576061842    0.4071513846
H252       H    0.0968901407    0.3619208547    0.4867537169
H253       H    0.1412131232    0.3500733853    0.4426463043
H254       H    0.0538018404    0.3457587147    0.3630439719
C235       C   -0.0405919314    0.4550029050    0.4999835130
C236       C   -0.0000205082    0.4550262429    0.4999918773
C237       C    0.0405356753    0.4956002276    0.4999931407
C238       C    0.0405204356    0.5361508744    0.4999860400
C239       C   -0.0000509876    0.5361275365    0.4999776758
C240       C   -0.0406071711    0.4955535518    0.4999764123
H241       H   -0.0706140412    0.4249676176    0.4999825777
H242       H    0.0705677820    0.4956187863    0.4999993320
H243       H    0.0705425454    0.5661861617    0.4999869753
H244       H   -0.0706392778    0.4955349931    0.4999702211
loop_
_geom_bond_atom_site_label_1
_geom_bond_atom_site_label_2
_geom_bond_distance
_geom_bond_site_symmetry_2
_ccdc_geom_bond_type
C510       H514 1.140       .   S
C507       H512 1.140       .   S
C508       H513 1.140       .   S
C505       H511 1.140       .   S
C555       C560 1.540       .   A
C560       H564 1.140       .   S
C559       C560 1.540       .   A
C248       C249 1.540       .   A
C247       C248 1.540       .   A
C248       H253 1.140       .   S
C566        C73 1.499       .   S
C566       C567 1.540       .   A
C565       C566 1.540       .   A
C567       C568 1.540       .   A
C567       H572 1.140       .   S
C565       C570 1.540       .   A
C565       H571 1.140       .   S
C568       C569 1.540       .   A
C568       H573 1.140       .   S
C569       C150 1.499       .   S
C569       C570 1.540       .   A
C246       C247 1.540       .   A
C247       H252 1.140       .   S
C245       C246 1.540       .   A
C246         C1 1.498       .   S
C245       C250 1.540       .   A
C245       H251 1.140       .   S
O139      Cu145 1.951       .   S
O138      Cu145 1.951       .   S
Cu145     Cu146 2.630       .   S
O140      Cu145 1.951       .   S
O137      Cu145 1.951       .   S
O144      Cu146 1.951       .   S
O141      Cu146 1.951       .   S
O142      Cu146 1.951       .   S
O143      Cu146 1.951       .   S
C376       C377 1.540       .   A
C375       C376 1.540       .   A
C376        C29 1.499       .   S
C457       H462 1.140       .   S
C489        C51 1.498       .   S
C488       C489 1.540       .   A
C489       C490 1.540       .   A
C455       H461 1.140       .   S
C460       H464 1.140       .   S
C488       H493 1.140       .   S
C487       C488 1.540       .   A
C338       H343 1.140       .   S
C337       H342 1.140       .   S
C335       H341 1.140       .   S
C340       H344 1.140       .   S
C479        C71 1.499       .   S
C479       C480 1.540       .   A
C478       C479 1.540       .   A
N98         C99 1.540       .   A
C97         N98 1.540       .   A
C296       C297 1.540       .   A
C297       C298 1.540       .   A
C297       H302 1.140       .   S
N92         C93 1.540       .   A
C91         N92 1.540       .   A
C89         N90 1.540       .   A
C85         N90 1.540       .   A
C91         N96 1.540       .   A
C95         N96 1.540       .   A
C93         N94 1.540       .   A
N94         C95 1.540       .   A
C665       C670 1.540       .   A
C665       C666 1.540       .   A
C665       H671 1.140       .   S
C667       H672 1.140       .   S
C666       C667 1.540       .   A
C667       C668 1.540       .   A
C666       C103 1.498       .   S
O166      Cu173 1.951       .   S
O166       C176 1.250       .   A
O167       C177 1.250       .   A
O167      Cu173 1.951       .   S
O165       C175 1.250       .   A
O165      Cu173 1.951       .   S
O168       C178 1.250       .   A
O168      Cu173 1.951       .   S
O169      Cu174 1.951       .   S
O169       C178 1.250       .   A
C669       C670 1.540       .   A
C669       C163 1.498   1_554   S
C668       C669 1.540       .   A
C668       H673 1.140       .   S
C45        C466 1.498       .   S
N44         C45 1.540       .   A
C45         N46 1.540       .   A
C47         N48 1.540       .   A
N46         C47 1.540       .   A
C456        C47 1.499       .   S
N40         C41 1.540       .   A
C41         N42 1.540       .   A
C41        C429 1.499       .   S
C43         N48 1.540       .   A
C43        C446 1.498       .   S
C43         N44 1.540       .   A
C640       H644 1.140       .   S
C235       C240 1.540       .   A
C235       C236 1.540       .   A
C235       H241 1.140       .   S
C637       H642 1.140       .   S
C49         N54 1.540       .   A
C49         N50 1.540       .   A
C49        C496 1.498       .   S
C635       H641 1.140       .   S
C589       C590 1.540       .   A
C590       H594 1.140       .   S
C585       C590 1.540       .   A
C597       H602 1.140       .   S
C597       C598 1.540       .   A
C596       C597 1.540       .   A
C595       C596 1.540       .   A
C596        C81 1.499       .   S
C595       C600 1.540       .   A
C595       H601 1.140       .   S
O210      Cu215 1.951       .   S
O209      Cu215 1.951       .   S
O208      Cu215 1.951       .   S
O207      Cu215 1.951       .   S
Cu215     Cu216 2.630       .   S
O211      Cu216 1.951       .   S
O212      Cu216 1.951       .   S
O213      Cu216 1.951       .   S
O214      Cu216 1.951       .   S
C598       H603 1.140       .   S
C598       C599 1.540       .   A
C285       H291 1.140       .   S
C288       H293 1.140       .   S
C287       H292 1.140       .   S
C290       H294 1.140       .   S
C348       H353 1.140       .   S
C348       C349 1.540       .   A
C347       C348 1.540       .   A
C349       C350 1.540       .   A
C349       C232 1.499       .   S
C15         N16 1.540       .   A
N14         C15 1.540       .   A
C15        C316 1.498       .   S
C310       H314 1.140       .   S
C305       C310 1.540       .   A
C309       C310 1.540       .   A
C339       C340 1.540       .   A
C335       C340 1.540       .   A
C346        C23 1.499       .   S
C346       C347 1.540       .   A
C345       C346 1.540       .   A
C347       H352 1.140       .   S
C615       C620 1.540       .   A
C615       H621 1.140       .   S
C615       C616 1.540       .   A
C487       H492 1.140       .   S
C485       H491 1.140       .   S
C490       H494 1.140       .   S
C617       C618 1.540       .   A
C617       H622 1.140       .   S
C616       C617 1.540       .   A
C315       C316 1.540       .   A
C316       C317 1.540       .   A
C526       C527 1.540       .   A
C525       C526 1.540       .   A
C526        C61 1.498       .   S
C527       H532 1.140       .   S
C527       C528 1.540       .   A
C525       C530 1.540       .   A
C525       H531 1.140       .   S
C519       C520 1.540       .   A
C515       C520 1.540       .   A
C520       H524 1.140       .   S
C287       C288 1.540       .   A
C288       C289 1.540       .   A
C286       C287 1.540       .   A
C285       C286 1.540       .   A
C286         C9 1.499       .   S
C285       C290 1.540       .   A
C249       C217 1.498       .   S
C249       C250 1.540       .   A
C528       H533 1.140       .   S
C528       C529 1.540       .   A
C529       C530 1.540       .   A
C529       C161 1.498       .   S
C449       C450 1.540       .   A
C448       C449 1.540       .   A
C449       C121 1.498   1_455   S
C448       H453 1.140       .   S
C447       C448 1.540       .   A
O109       C119 1.250       .   A
O116       C119 1.250       .   A
C119       C389 1.499   1_556   S
C445       C450 1.540       .   A
C445       C446 1.540       .   A
C445       H451 1.140       .   S
C446       C447 1.540       .   A
C447       H452 1.140       .   S
O172      Cu174 1.951       .   S
O172       C175 1.250       .   A
C440       H444 1.140       .   S
C439       C440 1.540       .   A
C435       C440 1.540       .   A
C420       H424 1.140       .   S
C417       H422 1.140       .   S
C418       H423 1.140       .   S
C415       H421 1.140       .   S
C380       H384 1.140       .   S
C378       H383 1.140       .   S
C377       H382 1.140       .   S
C375       H381 1.140       .   S
C239       C240 1.540       .   A
C240       H244 1.140       .   S
C540       H544 1.140       .   S
C535       H541 1.140       .   S
C538       H543 1.140       .   S
C537       H542 1.140       .   S
O222       C232 1.250       .   A
O227       C232 1.250       .   A
O223       C233 1.250       .   A
C639       C233 1.498       .   S
O226       C233 1.251       .   A
O221       C231 1.250       .   A
O228       C231 1.250       .   A
C599       C231 1.499   1_455   S
C236         C5 1.499       .   S
C236       C237 1.540       .   A
C237       H242 1.140       .   S
C237       C238 1.540       .   A
O225       C234 1.250       .   A
O224       C234 1.250       .   A
C234       C279 1.498       .   S
C295       C296 1.540       .   A
C295       H301 1.140       .   S
C295       C300 1.540       .   A
C238       H243 1.140       .   S
C238       C239 1.540       .   A
C95        C239 1.499   1_655   S
O126      Cu131 1.951       .   S
O126       C136 1.250       .   A
O127      Cu132 1.951       .   S
O127       C136 1.250       .   A
O124      Cu131 1.951       .   S
O124       C134 1.250       .   A
O125      Cu131 1.951       .   S
O125       C135 1.250       .   A
O123      Cu131 1.951       .   S
O123       C133 1.250       .   A
C655       H661 1.140       .   S
O128       C135 1.251       .   A
O128      Cu132 1.951       .   S
O129       C134 1.250       .   A
O129      Cu132 1.951       .   S
C176       C629 1.498   1_455   S
C628       C629 1.540       .   A
C629       C630 1.540       .   A
C628       H633 1.140       .   S
C627       C628 1.540       .   A
C658       H663 1.140       .   S
O171      Cu174 1.951       .   S
O170      Cu174 1.951       .   S
Cu173     Cu174 2.630       .   S
C620       H624 1.140       .   S
C619       C620 1.540       .   A
C625       H631 1.140       .   S
C625       C630 1.540       .   A
C625       C626 1.540       .   A
C627       H632 1.140       .   S
C626       C627 1.540       .   A
C93        C626 1.498       .   S
C327       H332 1.140       .   S
C325       H331 1.140       .   S
C330       H334 1.140       .   S
N16         C17 1.540       .   A
C17        C306 1.499       .   S
C17         N18 1.540       .   A
C37         N42 1.540       .   A
O193      Cu201 1.951       .   S
O193       C203 1.250       .   A
O197      Cu202 1.951       .   S
O197       C206 1.250       .   A
O196       C206 1.250       .   A
O196      Cu201 1.951       .   S
O195      Cu201 1.951       .   S
O195       C205 1.250       .   A
O194      Cu201 1.951       .   S
O194       C204 1.250       .   A
O199      Cu202 1.951       .   S
O199       C204 1.250       .   A
O198      Cu202 1.951       .   S
O198       C205 1.251       .   A
C577       H582 1.140       .   S
C328       H333 1.140       .   S
C250       H254 1.140       .   S
C497       C498 1.540       .   A
C498       H503 1.140       .   S
C498       C499 1.540       .   A
C135       C499 1.498       .   S
C499       C500 1.540       .   A
C496       C497 1.540       .   A
C495       C496 1.540       .   A
C497       H502 1.140       .   S
C495       C500 1.540       .   A
C495       H501 1.140       .   S
C485       C490 1.540       .   A
C509       C510 1.540       .   A
C505       C510 1.540       .   A
C657       C658 1.540       .   A
C658       C659 1.540       .   A
C659       C191 1.498   1_565   S
C659       C660 1.540       .   A
C307       C308 1.540       .   A
C308       H313 1.140       .   S
C308       C309 1.540       .   A
C309       C107 1.499       .   S
C306       C307 1.540       .   A
C305       C306 1.540       .   A
C655       C656 1.540       .   A
C655       C660 1.540       .   A
C97        C656 1.498       .   S
C656       C657 1.540       .   A
C657       H662 1.140       .   S
C645       C650 1.540       .   A
C650       H654 1.140       .   S
C649       C650 1.540       .   A
C300       H304 1.140       .   S
C299       C300 1.540       .   A
C516        C55 1.498       .   S
C515       C516 1.540       .   A
C516       C517 1.540       .   A
C39         N40 1.540       .   A
C610       H614 1.140       .   S
C605       H611 1.140       .   S
C608       H613 1.140       .   S
C607       H612 1.140       .   S
C587       H592 1.140       .   S
C588       H593 1.140       .   S
C585       H591 1.140       .   S
C39        C419 1.498       .   S
N38         C39 1.540       .   A
C35        C386 1.499       .   S
N34         C35 1.540       .   A
C35         N36 1.540       .   A
C37         N38 1.540       .   A
C37        C436 1.498       .   S
C31        C396 1.499       .   S
C31         N32 1.540       .   A
C31         N36 1.540       .   A
C33        C409 1.499       .   S
N32         C33 1.540       .   A
C33         N34 1.540       .   A
C399       C400 1.540       .   A
C400       H404 1.140       .   S
C395       C400 1.540       .   A
O140       C150 1.250       .   A
O141       C150 1.250       .   A
C405       H411 1.140       .   S
C405       C410 1.540       .   A
C405       C406 1.540       .   A
C407       C408 1.540       .   A
C407       H412 1.140       .   S
C406       C407 1.540       .   A
C89        C406 1.499       .   S
C408       C409 1.540       .   A
C409       C410 1.540       .   A
C408       H413 1.140       .   S
C71         N72 1.540       .   A
N70         C71 1.540       .   A
C395       H401 1.140       .   S
C395       C396 1.540       .   A
C397       C398 1.540       .   A
C397       H402 1.140       .   S
C396       C397 1.540       .   A
C398       C399 1.540       .   A
C219       C399 1.499   1_455   S
C398       H403 1.140       .   S
C648       H653 1.140       .   S
C458       H463 1.140       .   S
C500       H504 1.140       .   S
C450       H454 1.140       .   S
C276       C277 1.540       .   A
C275       C276 1.540       .   A
C276        C11 1.498       .   S
C277       H282 1.140       .   S
C277       C278 1.540       .   A
C275       H281 1.140       .   S
C275       C280 1.540       .   A
C269       C270 1.540       .   A
C270       H274 1.140       .   S
C265       C270 1.540       .   A
C278       H283 1.140       .   S
C278       C279 1.540       .   A
C279       C280 1.540       .   A
O228      Cu230 1.951       .   S
C475       C476 1.540       .   A
C476       C477 1.540       .   A
C476        C53 1.499       .   S
C477       C478 1.540       .   A
C477       H482 1.140       .   S
C579       C580 1.540       .   A
C578       C579 1.540       .   A
C220       C579 1.499       .   S
C577       C578 1.540       .   A
C578       H583 1.140       .   S
O221      Cu229 1.951       .   S
O223      Cu229 1.951       .   S
O222      Cu229 1.951       .   S
O225      Cu230 1.951       .   S
O224      Cu229 1.951       .   S
O227      Cu230 1.951       .   S
O226      Cu230 1.951       .   S
Cu131     Cu132 2.630       .   S
O130      Cu132 1.951       .   S
C370       H374 1.140       .   S
C367       H372 1.140       .   S
C368       H373 1.140       .   S
C365       H371 1.140       .   S
C570       H574 1.140       .   S
C470       H474 1.140       .   S
C465       H471 1.140       .   S
C468       H473 1.140       .   S
C467       H472 1.140       .   S
C368       C369 1.540       .   A
C203       C369 1.499       .   S
C369       C370 1.540       .   A
C609       C610 1.540       .   A
C605       C610 1.540       .   A
C105       N106 1.540       .   A
N106       C107 1.540       .   A
N104       C105 1.540       .   A
C103       N104 1.540       .   A
O179       C189 1.250       .   A
O179      Cu187 1.951       .   S
C97        N102 1.540       .   A
C101       N102 1.540       .   A
C87        C616 1.498       .   S
C99        N100 1.540       .   A
N100       C101 1.540       .   A
C618       C619 1.540       .   A
C618       H623 1.140       .   S
C619       C204 1.498   1_544   S
O171       C176 1.250       .   A
O170       C177 1.251       .   A
C107       N108 1.540       .   A
C103       N108 1.540       .   A
C11         N12 1.540       .   A
C7          N12 1.540       .   A
C9          N10 1.540       .   A
N10         C11 1.540       .   A
C366       C367 1.540       .   A
C367       C368 1.540       .   A
C13         N14 1.540       .   A
C13         N18 1.540       .   A
C79         N84 1.540       .   A
C79         N80 1.540       .   A
C586        C79 1.499       .   S
C645       H651 1.140       .   S
C73         N74 1.540       .   A
C73         N78 1.540       .   A
C647       H652 1.140       .   S
N74         C75 1.540       .   A
C75         N76 1.540       .   A
C576        C75 1.499       .   S
N76         C77 1.540       .   A
C329        C77 1.499       .   S
C77         N78 1.540       .   A
C255       H261 1.140       .   S
C390       H394 1.140       .   S
C385       C390 1.540       .   A
C389       C390 1.540       .   A
C355       H361 1.140       .   S
C355       C356 1.540       .   A
C355       C360 1.540       .   A
C356       C357 1.540       .   A
C357       C358 1.540       .   A
C357       H362 1.140       .   S
C356        C25 1.499       .   S
C350       H354 1.140       .   S
C345       C350 1.540       .   A
C260       H264 1.140       .   S
C149       C359 1.499   1_545   S
C358       C359 1.540       .   A
C359       C360 1.540       .   A
C358       H363 1.140       .   S
C257       H262 1.140       .   S
C258       H263 1.140       .   S
C679       C680 1.540       .   A
C680       H684 1.140       .   S
C675       C680 1.540       .   A
C678       H683 1.140       .   S
C83         N84 1.540       .   A
N82         C83 1.540       .   A
C379        C83 1.499       .   S
C530       H534 1.140       .   S
C535       C540 1.540       .   A
C535       C536 1.540       .   A
C537       C538 1.540       .   A
C536       C537 1.540       .   A
C536        C65 1.498       .   S
C148       C539 1.498       .   S
C538       C539 1.540       .   A
C539       C540 1.540       .   A
C438       C439 1.540       .   A
C438       H443 1.140       .   S
C437       C438 1.540       .   A
C147       C439 1.498   1_545   S
C517       H522 1.140       .   S
O113       C122 1.250       .   A
O112       C122 1.250       .   A
C122       C549 1.498   1_556   S
C589       C120 1.499   1_455   S
O110       C120 1.250       .   A
O115       C120 1.250       .   A
O111       C121 1.250       .   A
O114       C121 1.251       .   A
C435       C436 1.540       .   A
C435       H441 1.140       .   S
C436       C437 1.540       .   A
C660       H664 1.140       .   S
C305       H311 1.140       .   S
C425       H431 1.140       .   S
C428       H433 1.140       .   S
C458       C459 1.540       .   A
C459        C63 1.499       .   S
C459       C460 1.540       .   A
C430       H434 1.140       .   S
C258       C259 1.540       .   A
C257       C258 1.540       .   A
C91        C636 1.498       .   S
C259       C260 1.540       .   A
C192       C259 1.498   1_655   S
C99        C646 1.498       .   S
O210       C220 1.250       .   A
O211       C220 1.250       .   A
O212       C219 1.251       .   A
O213       C218 1.250       .   A
O214       C217 1.250       .   A
C548       H553 1.140       .   S
C547       C548 1.540       .   A
C548       C549 1.540       .   A
O130       C133 1.250       .   A
O137       C147 1.250       .   A
O139       C149 1.250       .   A
O138       C148 1.250       .   A
O157      Cu160 1.951       .   S
O156      Cu160 1.951       .   S
O155      Cu160 1.951       .   S
Cu159     Cu160 2.630       .   S
O158      Cu160 1.951       .   S
C57         N58 1.540       .   A
N58         C59 1.540       .   A
N56         C57 1.540       .   A
C55         N56 1.540       .   A
C320       H324 1.140       .   S
C53         N54 1.540       .   A
N52         C53 1.540       .   A
C51         N52 1.540       .   A
N50         C51 1.540       .   A
C317       H322 1.140       .   S
C255       C256 1.540       .   A
C256         C3 1.498       .   S
C256       C257 1.540       .   A
C268       C269 1.540       .   A
C268       H273 1.140       .   S
C267       C268 1.540       .   A
O180      Cu187 1.951       .   S
O181      Cu187 1.951       .   S
O182      Cu187 1.951       .   S
Cu187     Cu188 2.630       .   S
O144       C147 1.250       .   A
C636       C637 1.540       .   A
C635       C636 1.540       .   A
O142       C149 1.251       .   A
O143       C148 1.250       .   A
C475       C480 1.540       .   A
C480       H484 1.140       .   S
C485       C486 1.540       .   A
N2           C3 1.540       .   A
C1           N2 1.540       .   A
C486       C487 1.540       .   A
C486       C162 1.498   1_554   S
C319       C320 1.540       .   A
C318       C319 1.540       .   A
C319       C205 1.498   1_544   S
C466       C467 1.540       .   A
C467       C468 1.540       .   A
O110      Cu117 1.951       .   S
C648       C649 1.540       .   A
C206       C649 1.498       .   S
C647       C648 1.540       .   A
C646       C647 1.540       .   A
C645       C646 1.540       .   A
C315       C320 1.540       .   A
C315       H321 1.140       .   S
C317       C318 1.540       .   A
C635       C640 1.540       .   A
C639       C640 1.540       .   A
N28         C29 1.540       .   A
C27         N28 1.540       .   A
C630       H634 1.140       .   S
N22         C23 1.540       .   A
C21         N22 1.540       .   A
C19         N20 1.540       .   A
N20         C21 1.540       .   A
N26         C27 1.540       .   A
C25         N26 1.540       .   A
C23         N24 1.540       .   A
C19         N24 1.540       .   A
C326        C21 1.499       .   S
C366        C27 1.499       .   S
C25         N30 1.540       .   A
C575       H581 1.140       .   S
C29         N30 1.540       .   A
C580       H584 1.140       .   S
Cu229     Cu230 2.630       .   S
C298       H303 1.140       .   S
C255       C260 1.540       .   A
C269       C164 1.498       .   S
O155       C164 1.250       .   A
O154       C164 1.250       .   A
O157       C162 1.250       .   A
O152       C162 1.250       .   A
O156       C163 1.251       .   A
O153       C163 1.250       .   A
O151       C161 1.250       .   A
O158       C161 1.250       .   A
C469       C190 1.498   1_455   S
C469       C470 1.540       .   A
C468       C469 1.540       .   A
C365       C366 1.540       .   A
C365       C370 1.540       .   A
C360       H364 1.140       .   S
C509       C189 1.498   1_565   S
O186       C189 1.250       .   A
C265       H271 1.140       .   S
C265       C266 1.540       .   A
C267       H272 1.140       .   S
C266       C267 1.540       .   A
C266         C7 1.498       .   S
C508       C509 1.540       .   A
C507       C508 1.540       .   A
C465       C466 1.540       .   A
C465       C470 1.540       .   A
C455       C460 1.540       .   A
C505       C506 1.540       .   A
C506        C59 1.498       .   S
C506       C507 1.540       .   A
C638       H643 1.140       .   S
C429       C430 1.540       .   A
C425       C430 1.540       .   A
C558       H563 1.140       .   S
C557       H562 1.140       .   S
C555       H561 1.140       .   S
C307       H312 1.140       .   S
O207       C217 1.250       .   A
C437       H442 1.140       .   S
O208       C218 1.250       .   A
C218       C679 1.498       .   S
O209       C219 1.250       .   A
O109      Cu117 1.951       .   S
C599       C600 1.540       .   A
C600       H604 1.140       .   S
C607       C608 1.540       .   A
C606       C607 1.540       .   A
C134       C606 1.499   1_565   S
C605       C606 1.540       .   A
C85        C609 1.499       .   S
C608       C609 1.540       .   A
C65         N66 1.540       .   A
C61         N66 1.540       .   A
N64         C65 1.540       .   A
C63         N64 1.540       .   A
N62         C63 1.540       .   A
C61         N62 1.540       .   A
C55         N60 1.540       .   A
C59         N60 1.540       .   A
C67         N68 1.540       .   A
N68         C69 1.540       .   A
N8           C9 1.540       .   A
C3           N4 1.540       .   A
C1           N6 1.540       .   A
C7           N8 1.540       .   A
N4           C5 1.540       .   A
C5           N6 1.540       .   A
C69         N70 1.540       .   A
C556        C69 1.498       .   S
C67         N72 1.540       .   A
C67        C546 1.498       .   S
C325       C330 1.540       .   A
C325       C326 1.540       .   A
C326       C327 1.540       .   A
C327       C328 1.540       .   A
C328       C329 1.540       .   A
C329       C330 1.540       .   A
C345       H351 1.140       .   S
C427       H432 1.140       .   S
C289       C290 1.540       .   A
C101       C289 1.499       .   S
C336        C19 1.499       .   S
C296        C13 1.498       .   S
C519       C136 1.498       .   S
C339       C133 1.499       .   S
C428       C429 1.540       .   A
C427       C428 1.540       .   A
C415       C420 1.540       .   A
C419       C420 1.540       .   A
C426       C427 1.540       .   A
C426        C57 1.499       .   S
C425       C426 1.540       .   A
C318       H323 1.140       .   S
C677       H682 1.140       .   S
N80         C81 1.540       .   A
C81         N82 1.540       .   A
C675       H681 1.140       .   S
C85         N86 1.540       .   A
N86         C87 1.540       .   A
C87         N88 1.540       .   A
C518       H523 1.140       .   S
N88         C89 1.540       .   A
C515       H521 1.140       .   S
C556       C557 1.540       .   A
C557       C558 1.540       .   A
C555       C556 1.540       .   A
O200      Cu202 1.951       .   S
O200       C203 1.250       .   A
C545       C550 1.540       .   A
C549       C550 1.540       .   A
C550       H554 1.140       .   S
C559       C178 1.498   1_655   S
C558       C559 1.540       .   A
O154      Cu159 1.951       .   S
O153      Cu159 1.951       .   S
O152      Cu159 1.951       .   S
O151      Cu159 1.951       .   S
C545       C546 1.540       .   A
C545       H551 1.140       .   S
C546       C547 1.540       .   A
C547       H552 1.140       .   S
C678       C679 1.540       .   A
C677       C678 1.540       .   A
C670       H674 1.140       .   S
C676       C677 1.540       .   A
C675       C676 1.540       .   A
C105       C676 1.498       .   S
C575       C580 1.540       .   A
Cu201     Cu202 2.630       .   S
C585       C586 1.540       .   A
C586       C587 1.540       .   A
C587       C588 1.540       .   A
C588       C589 1.540       .   A
C280       H284 1.140       .   S
C475       H481 1.140       .   S
C299       C175 1.498   1_545   S
C177       C416 1.498       .   S
C379       C380 1.540       .   A
C378       C379 1.540       .   A
C377       C378 1.540       .   A
C375       C380 1.540       .   A
C478       H483 1.140       .   S
O182       C192 1.250       .   A
O183       C192 1.250       .   A
O181       C191 1.250       .   A
O184       C191 1.251       .   A
O180       C190 1.250       .   A
O185       C190 1.250       .   A
C575       C576 1.540       .   A
C576       C577 1.540       .   A
C298       C299 1.540       .   A
C518       C519 1.540       .   A
C517       C518 1.540       .   A
C456       C457 1.540       .   A
C455       C456 1.540       .   A
C457       C458 1.540       .   A
O113      Cu118 1.951       .   S
Cu117     Cu118 2.630       .   S
O116      Cu118 1.951       .   S
O115      Cu118 1.951       .   S
O114      Cu118 1.951       .   S
O111      Cu117 1.951       .   S
O112      Cu117 1.951       .   S
C385       H391 1.140       .   S
C387       H392 1.140       .   S
C388       H393 1.140       .   S
C410       H414 1.140       .   S
C637       C638 1.540       .   A
C638       C639 1.540       .   A
O183      Cu188 1.951       .   S
O184      Cu188 1.951       .   S
O185      Cu188 1.951       .   S
O186      Cu188 1.951       .   S
C337       C338 1.540       .   A
C336       C337 1.540       .   A
C335       C336 1.540       .   A
C338       C339 1.540       .   A
C416       C417 1.540       .   A
C415       C416 1.540       .   A
C417       C418 1.540       .   A
C418       C419 1.540       .   A
C386       C387 1.540       .   A
C385       C386 1.540       .   A
C387       C388 1.540       .   A
C388       C389 1.540       .   A
