data_fog_3c_B_4c_Cu_1_1B_4H_1B_4H
_audit_creation_date              2019-04-02
_audit_creation_method            'tobacco_3.0'
_symmetry_space_group_name_H-M    'P1'
_symmetry_Int_Tables_number       1
_symmetry_cell_setting            triclinic
loop_
_symmetry_equiv_pos_as_xyz
  x,y,z
_cell_length_a                    38.50420651916976
_cell_length_b                    38.509912448262185
_cell_length_c                    43.133365953544036
_cell_angle_alpha                 89.9162585917618
_cell_angle_beta                  90.0782497014277
_cell_angle_gamma                 119.16214272682384
loop_
_atom_site_label
_atom_site_type_symbol
_atom_site_fract_x
_atom_site_fract_y
_atom_site_fract_z
C1         C   -0.0241391079    0.3430601265    0.5244265866
C2         C    0.0002910531    0.3351547080    0.4999884727
C3         C    0.0244301611    0.3670945815    0.4755618861
C4         C    0.0241391079    0.4069398735    0.4755734134
C5         C   -0.0002910531    0.4148452920    0.5000115273
C6         C   -0.0244301611    0.3829054185    0.5244381139
H7         H    0.0005082655    0.3056554479    0.4999782014
H8         H    0.0420083177    0.4305836760    0.4574913947
H9         H   -0.0425165832    0.3887608761    0.5425304039
C10        C    0.6494063697    0.6805774832    0.8621852567
C11        C    0.6738431207    0.6725032791    0.8378630658
C12        C    0.6980900282    0.7043240502    0.8133891343
C13        C    0.6979001848    0.7442190254    0.8132373937
C14        C    0.6734634338    0.7522932295    0.8375595847
C15        C    0.6492165263    0.7204724584    0.8620335161
H16        H    0.6739854048    0.6429672250    0.8379736749
H17        H    0.7158491943    0.7677746611    0.7951203276
H18        H    0.6311252326    0.7264528767    0.8800399732
C19        C    0.3100235247    0.0089982793    0.1920640888
C20        C    0.3097855882    0.0488627528    0.1926811608
C21        C    0.3340162383    0.0812831389    0.1686019352
C22        C    0.3584848249    0.0738390516    0.1439056377
C23        C    0.3587227614    0.0339745781    0.1432885658
C24        C    0.3344921113    0.0015541920    0.1673677914
H25        H    0.2916707222    0.0543766741    0.2109646350
H26        H    0.3764217996    0.0978385582    0.1260807565
H27        H    0.3346700025   -0.0279592359    0.1669091983
C28        C    0.6299773803    0.6541064133    0.4791543914
C29        C    0.6619207348    0.6613690897    0.5036715021
C30        C    0.6542636924    0.6292494584    0.5281309612
C31        C    0.6146632955    0.5898671506    0.5280733097
C32        C    0.5827199410    0.5826044742    0.5035561990
C33        C    0.5903769834    0.6147241055    0.4790967399
H34        H    0.6912404003    0.6905255426    0.5037159262
H35        H    0.6089950953    0.5660902807    0.5461796626
H36        H    0.5667255181    0.6093445225    0.4609459629
C37        C    0.3214417878    0.9596170838    0.8598034455
C38        C    0.2822611817    0.9198257099    0.8601938456
C39        C    0.2497985246    0.9116549650    0.8359211612
C40        C    0.2565164735    0.9432755940    0.8112580767
C41        C    0.2956970795    0.9830669679    0.8108676766
C42        C    0.3281597367    0.9912377128    0.8351403610
H43        H    0.2772848917    0.8964131546    0.8784527151
H44        H    0.2324856754    0.9372271205    0.7932899857
H45        H    0.3571668248    1.0206987415    0.8348495824
C46        C    0.9893496065    0.2915757095    0.1908369724
C47        C    0.9968199144    0.3236367007    0.1663745241
C48        C    0.9648033890    0.3162009474    0.1418764840
C49        C    0.9253165557    0.2767042030    0.1418408924
C50        C    0.9178462478    0.2446432118    0.1663033408
C51        C    0.9498627731    0.2520789651    0.1908013808
H52        H    1.0260537655    0.3528796374    0.1663991346
H53        H    0.9016160110    0.2711998142    0.1237059797
H54        H    0.9443294667    0.2283404171    0.2089116830
C55        C    0.3714825525    1.0189111192    0.5266986673
C56        C    0.4120472163    1.0201129136    0.5264761459
C57        C    0.4208499363    0.9964388532    0.5019340650
C58        C    0.3890879925    0.9715629984    0.4776145055
C59        C    0.3485233287    0.9703612039    0.4778370269
C60        C    0.3397206087    0.9940352643    0.5023791078
H61        H    0.4355644462    1.0385293613    0.5444806497
H62        H    0.3956042918    0.9540380446    0.4594469911
H63        H    0.3096870796    0.9931437704    0.5025421184
C64        C    0.0192911357    0.3120497978    0.8086605544
C65        C    0.0590643046    0.3116037077    0.8090101882
C66        C    0.0907866565    0.3357105516    0.8335849768
C67        C    0.0827358395    0.3602634858    0.8578101315
C68        C    0.0429626706    0.3607095759    0.8574604978
C69        C    0.0112403187    0.3366027319    0.8328857092
H70        H    0.0650274001    0.2934263818    0.7910755841
H71        H    0.1062186195    0.3781088118    0.8760018581
H72        H   -0.0182055568    0.3369347317    0.8326285867
C73        C    0.6818966346    0.6413301469    0.1439733163
C74        C    0.6740804790    0.6658953809    0.1683402079
C75        C    0.7061384751    0.6902165699    0.1926344677
C76        C    0.7460126268    0.6899725249    0.1925618359
C77        C    0.7538287824    0.6654072909    0.1681949443
C78        C    0.7217707863    0.6410861019    0.1439006845
H79        H    0.6445598595    0.6660778013    0.1683957117
H80        H    0.7697438707    0.7079765220    0.2105458983
H81        H    0.7275601618    0.6228996845    0.1258611182
C82        C    0.6608867221    0.0303320454    0.5231168709
C83        C    0.6208105442    0.0301581485    0.5234402159
C84        C    0.5886952585    0.0057122754    0.4992199469
C85        C    0.5966561507   -0.0185597008    0.4746763329
C86        C    0.6367323286   -0.0183858039    0.4743529879
C87        C    0.6688476143    0.0060600692    0.4985732569
H88        H    0.6149140012    0.0481274284    0.5416106330
H89        H    0.5728824976   -0.0366559965    0.4567470428
H90        H    0.6985178102    0.0061870850    0.4983321298
C91        C    0.3212669182    0.3517753514    0.8622735178
C92        C    0.2817219971    0.3526805183    0.8622559688
C93        C    0.2495396590    0.3285922553    0.8379787720
C94        C    0.2569022421    0.3035988252    0.8137191240
C95        C    0.2964471632    0.3026936582    0.8137366730
C96        C    0.3286295013    0.3267819213    0.8380138698
H97        H    0.2762684386    0.3711839895    0.8802161328
H98        H    0.2330789528    0.2857672539    0.7957476926
H99        H    0.3579063490    0.3261100215    0.8380251372
C100       C    0.9899310869    0.6888150128    0.1935584680
C101       C    0.9975142474    0.6642977061    0.1689981641
C102       C    0.9653303202    0.6402382613    0.1447140508
C103       C    0.9255632324    0.6406961233    0.1449902414
C104       C    0.9179800719    0.6652134301    0.1695505454
C105       C    0.9501639991    0.6892728748    0.1938346587
H106       H    1.0269555876    0.6639569938    0.1687919456
H107       H    0.9017387668    0.6228858850    0.1270136900
H108       H    0.9445471246    0.7074238254    0.2120174286
C109       C    0.3733855575    0.3459095482    0.5267127178
C110       C    0.4128086902    0.3854654225    0.5270799844
C111       C    0.4205643420    0.4176419852    0.5026477257
C112       C    0.3888968611    0.4102626736    0.4778482003
C113       C    0.3494737284    0.3707067993    0.4774809336
C114       C    0.3417180767    0.3385302365    0.5019131924
H115       H    0.4362559051    0.3909313664    0.5454398638
H116       H    0.3946380579    0.4340816876    0.4597619828
H117       H    0.3125296649    0.3092452787    0.5016395306
C118       C    0.0172868977    0.7034308519    0.8111384426
C119       C    0.0097965172    0.6714561632    0.8356858221
C120       C    0.0417833317    0.6789878835    0.8602364267
C121       C    0.0812605267    0.7184942925    0.8602396518
C122       C    0.0887509072    0.7504689812    0.8356922723
C123       C    0.0567640927    0.7429372609    0.8111416677
H124       H   -0.0194301999    0.6422060775    0.8356851796
H125       H    0.1049390777    0.7240697219    0.8784134760
H126       H    0.0623122587    0.7666119172    0.7929684861
C127       C    0.7075091263    0.0130158044    0.1918421300
C128       C    0.7472570187    0.0522467116    0.1917915089
C129       C    0.7550595928    0.0843231447    0.1672548980
C130       C    0.7231142745    0.0771686706    0.1427689082
C131       C    0.6833663821    0.0379377634    0.1428195293
C132       C    0.6755638080    0.0058613303    0.1673561401
H133       H    0.7709099483    0.0575461783    0.2099192385
H134       H    0.7288902059    0.1009135627    0.1246054431
H135       H    0.6461349468   -0.0231830284    0.1673918758
C136       C    0.0265847020    0.6505258622    0.4758904649
C137       C    0.0262973605    0.6104000374    0.4756489968
C138       C    0.0016898817    0.5783262633    0.4998520139
C139       C   -0.0226302555    0.5863783139    0.5242964991
C140       C   -0.0223429140    0.6265041387    0.5245379671
C141       C    0.0022645647    0.6585779129    0.5003349500
H142       H    0.0443022874    0.6044360035    0.4575519736
H143       H   -0.0408461813    0.5626353902    0.5422130182
H144       H    0.0024755636    0.6882848705    0.5005154540
C145       C    0.6920855152    0.9831360936    0.8087591269
C146       C    0.6923076580    0.9432587544    0.8091619833
C147       C    0.6680276616    0.9115996033    0.8337308991
C148       C    0.6435255222    0.9198177915    0.8578969586
C149       C    0.6433033794    0.9596951306    0.8574941021
C150       C    0.6675833759    0.9913542817    0.8329251863
H151       H    0.7104473630    0.9371717414    0.7912711332
H152       H    0.6255520184    0.8963817965    0.8760843378
H153       H    0.6674171748    1.0208772896    0.8326286573
C154       C    0.3636018017    0.3211578687    0.1457155079
C155       C    0.3391669147    0.3290166998    0.1701793301
C156       C    0.3147556945    0.2969003617    0.1944116874
C157       C    0.3147793613    0.2569251925    0.1941802226
C158       C    0.3392142483    0.2490663614    0.1697164005
C159       C    0.3636254685    0.2811826995    0.1454840431
H160       H    0.3391476563    0.3586121087    0.1703524298
H161       H    0.2967087178    0.2331507604    0.2121184612
H162       H    0.3817153704    0.2753617228    0.1273727049
O163       O   -0.0402739543    0.5130821018    0.0270641053
O164       O   -0.0228715586    0.4510250007   -0.0356324554
O165       O   -0.0401380698    0.4418960924    0.0265268947
O166       O   -0.0230061912    0.5222116706   -0.0350997768
O167       O    0.0416333503    0.5536765111   -0.0241526324
O168       O    0.0245013566    0.4733660693    0.0374740591
O169       O    0.0417679829    0.4824898413   -0.0246853110
O170       O    0.0243655872    0.5445469423    0.0380112496
Cu171     Cu   -0.0374711008    0.4791801547   -0.0052846048
Cu172     Cu    0.0389651295    0.5163917884    0.0076633991
C173       C   -0.0105193684    0.5379645702    0.0417826218
C174       C    0.0120133971    0.4576073728   -0.0394038275
C175       C   -0.0103471153    0.4457914085    0.0410872722
C176       C    0.0118411439    0.5497805345   -0.0387084779
O177       O    0.6455819513    0.7855102580    0.2990254890
O178       O    0.6296533195    0.8494884402    0.3608668943
O179       O    0.6462879319    0.8571063998    0.2986023692
O180       O    0.6289461196    0.7778917415    0.3612945516
O181       O    0.6936922227    0.8090098752    0.3718444102
O182       O    0.7110338776    0.8882192651    0.3091522427
O183       O    0.6943994226    0.8806065739    0.3714167530
O184       O    0.7103280544    0.8166283916    0.3095753477
Cu185     Cu    0.6317088098    0.8146617239    0.3289848639
Cu186     Cu    0.7082725641    0.8514551080    0.3414573781
C187       C    0.6803045921    0.7916368369    0.2951818408
C188       C    0.6596767818    0.8744799949    0.3752604012
C189       C    0.6812154423    0.8843376637    0.2946326053
C190       C    0.6587659317    0.7817791682    0.3758096367
O191       O    0.3692760893    0.2163380307    0.6424737367
O192       O    0.3521507295    0.1363416452    0.7043867888
O193       O    0.3691946073    0.1450438195    0.6421881308
O194       O    0.3522309759    0.2076352237    0.7046769296
O195       O    0.2875525736    0.1762503528    0.6938710702
O196       O    0.3045163162    0.1136641950    0.6313823111
O197       O    0.2874723272    0.1049567742    0.6935809294
O198       O    0.3045976870    0.1849531598    0.6316678773
Cu199     Cu    0.3666153069    0.1792014411    0.6744177743
Cu200     Cu    0.2901331096    0.1420933639    0.6616368918
C201       C    0.3394612234    0.2124400182    0.6279413851
C202       C    0.3172871931    0.1088547867    0.7081132810
C203       C    0.3393594095    0.1201303582    0.6275713472
C204       C    0.3173890070    0.2011644467    0.7084833190
O205       O    0.5581495571    0.5135527117    0.0283510842
O206       O    0.4793727835    0.4511360452   -0.0338088164
O207       O    0.5496437830    0.5215946153   -0.0339987324
O208       O    0.4878734387    0.4430890025    0.0285410115
O209       O    0.4549646885    0.4757920272    0.0387814527
O210       O    0.5167357050    0.5542969992   -0.0237537642
O211       O    0.4464640333    0.4838390699   -0.0235683752
O212       O    0.5252408070    0.5462557364    0.0385915254
Cu213     Cu    0.5217624149    0.4793586766   -0.0036653347
Cu214     Cu    0.4828511756    0.5180331050    0.0084480437
C215       C    0.5533105280    0.5391082902    0.0426363410
C216       C    0.4513030624    0.4582834914   -0.0378536320
C217       C    0.5422999707    0.5495200861   -0.0380944998
C218       C    0.4623136198    0.4478716955    0.0428772088
O219       O    0.1243559745    0.8058474228    0.3705497010
O220       O    0.1863372666    0.8848089420    0.3083637351
O221       O    0.1159086235    0.8145072562    0.3082884715
O222       O    0.1947897477    0.8761542366    0.3706249698
O223       O    0.2274865867    0.8433340255    0.3600336772
O224       O    0.1486060261    0.7816864689    0.2977017333
O225       O    0.2190341056    0.8519887309    0.2977724425
O226       O    0.1570528135    0.7730272117    0.3599584084
Cu227     Cu    0.1523641817    0.8483251028    0.3404212695
Cu228     Cu    0.1910258984    0.8095110509    0.3279008740
C229       C    0.1315653820    0.7777938657    0.3744226608
C230       C    0.2118246981    0.8800422880    0.2938994826
C231       C    0.1206251110    0.7890074194    0.2938076398
C232       C    0.2227649692    0.8688287343    0.3745145037
O233       O    0.8235852887    0.1091565945    0.6932663702
O234       O    0.8855714895    0.1881727469    0.6311160097
O235       O    0.8939872702    0.1794977673    0.6933739321
O236       O    0.8151688996    0.1178322047    0.6310039086
O237       O    0.7824206133    0.1506037212    0.6415853600
O238       O    0.8612339067    0.2122641045    0.7039553573
O239       O    0.8528232031    0.2209442634    0.6416974612
O240       O    0.7908370024    0.1419281110    0.7038478217
Cu241     Cu    0.8575688993    0.1456764972    0.6612241499
Cu242     Cu    0.8188395926    0.1844243608    0.6737396814
C243       C    0.7980715252    0.1138924748    0.7077215045
C244       C    0.8783369666    0.2162083832    0.6272423269
C245       C    0.8892295902    0.2049680704    0.7078610247
C246       C    0.7871789017    0.1251327875    0.6271028067
O247       O    0.4812837526    0.0282396908    0.9632468542
O248       O    0.5613818400    0.0457191738    1.0251680766
O249       O    0.5527181504    0.0285879973    0.9629864033
O250       O    0.4899480787    0.0453721227    1.0254330589
O251       O    0.4587475063   -0.0192807576    1.0363024968
O252       O    0.5215124234   -0.0360648025    0.9738558436
O253       O    0.5301812676   -0.0189337065    1.0360375145
O254       O    0.4500831802   -0.0364131896    0.9741162920
Cu255     Cu    0.5241824914    0.0428797954    0.9932169773
Cu256     Cu    0.4872825288   -0.0335738112    1.0060673913
C257       C    0.4538732242   -0.0066650023    0.9595512325
C258       C    0.5575917960    0.0159709865    1.0397331362
C259       C    0.5463677507   -0.0062107772    0.9592126040
C260       C    0.4650972696    0.0155167614    1.0400717646
O261       O    0.1851242977    0.2901998194    0.3093388923
O262       O    0.1212476418    0.3063039889    0.3711787815
O263       O    0.1135182761    0.2894957146    0.3089450285
O264       O    0.1928542219    0.3070093122    0.3715771827
O265       O    0.2239579143    0.3717157069    0.3609071350
O266       O    0.1446271360    0.3542020553    0.2982750281
O267       O    0.1523513341    0.3710103836    0.3605087338
O268       O    0.2162279901    0.3549062141    0.2986688446
Cu269     Cu    0.1503454848    0.2923474220    0.3412339523
Cu270     Cu    0.1871301471    0.3688627811    0.3286136738
C271       C    0.2100944812    0.3201792499    0.2948852351
C272       C    0.1273811506    0.3410309532    0.3749623910
C273       C    0.1173775271    0.3192638907    0.2943750176
C274       C    0.2200981048    0.3419463123    0.3754726085
O275       O    0.8905965162    0.7031782851    0.6946638635
O276       O    0.8104763212    0.6866690270    0.6330380695
O277       O    0.8195691014    0.7036580832    0.6952405438
O278       O    0.8815030749    0.6861879973    0.6324568541
O279       O    0.8497749175    0.6215112726    0.6432406614
O280       O    0.7878461716    0.6389814287    0.7060242903
O281       O    0.7787481638    0.6219923023    0.6438218768
O282       O    0.8588683588    0.6385015604    0.7054476708
Cu283     Cu    0.8534293482    0.7008254194    0.6628654765
Cu284     Cu    0.8159153318    0.6243451679    0.6756202639
C285       C    0.8865451153    0.6732734188    0.7091428352
C286       C    0.7827995647    0.6518971685    0.6293429051
C287       C    0.7945809258    0.6738983473    0.7098897564
C288       C    0.8747637542    0.6512722401    0.6285959840
C289       C   -0.0388385729    0.4575742763    0.5000317073
C290       C    0.0006625452    0.4565780498    0.5000313248
C291       C    0.0404897297    0.4957298176    0.5000463584
C292       C    0.0408157961    0.5358778118    0.5000617747
C293       C    0.0013146780    0.5368740383    0.5000621572
C294       C   -0.0385125065    0.4977222705    0.5000471235
H295       H   -0.0683210342    0.4285917988    0.5000205784
H296       H    0.0697295774    0.4949936533    0.5000460758
H297       H    0.0702982574    0.5648602893    0.5000729035
H298       H   -0.0677523542    0.4984584348    0.5000474062
C299       C    0.0402885483    0.3592464077    0.4152867919
C300       C    0.0512601366    0.3615134644    0.4498522140
C301       C    0.0873742952    0.3571655140    0.4598206622
C302       C    0.1125168656    0.3505505068    0.4352236883
C303       C    0.1015452773    0.3482834501    0.4006582663
C304       C    0.0654311187    0.3526314006    0.3906898180
H305       H    0.0135546907    0.3624650204    0.4079075510
H306       H    0.0954965687    0.3588434437    0.4854061802
H307       H    0.1392507232    0.3473318941    0.4426029292
H308       H    0.0573088452    0.3509534709    0.3651043000
C309       C   -0.0304650222    0.2893704038    0.5683088265
C310       C   -0.0492116262    0.3111419596    0.5509411231
C311       C   -0.0920202330    0.3016901547    0.5584810594
C312       C   -0.1160822360    0.2704667939    0.5833886991
C313       C   -0.0973356320    0.2486952381    0.6007564025
C314       C   -0.0545270252    0.2581470431    0.5932164661
H315       H    0.0012244660    0.2963671945    0.5627273152
H316       H   -0.1058977574    0.3178050838    0.5456257857
H317       H   -0.1477717242    0.2634700033    0.5889702104
H318       H   -0.0406495008    0.2420321140    0.6060717398
C319       C    0.6387773340    0.6242963083    0.9056030921
C320       C    0.6212999877    0.6471035276    0.8880277434
C321       C    0.5785191577    0.6383523851    0.8947714144
C322       C    0.5532156740    0.6067940232    0.9190904339
C323       C    0.5706930202    0.5839868039    0.9366657825
C324       C    0.6134738503    0.5927379465    0.9299221116
H325       H    0.6704462601    0.6307744269    0.9006110240
H326       H    0.5655811342    0.6552339308    0.8817624172
H327       H    0.5215467478    0.6003159047    0.9240825020
H328       H    0.6264118737    0.5758564008    0.9429311088
C329       C    0.7595069516    0.6939366383    0.7956355063
C330       C    0.7225468402    0.6972725103    0.7865557485
C331       C    0.7095953842    0.6931810492    0.7523565979
C332       C    0.7336040396    0.6857537162    0.7272372051
C333       C    0.7705641510    0.6824178442    0.7363169630
C334       C    0.7835156070    0.6865093052    0.7705161136
H335       H    0.7690943931    0.6969653822    0.8209517607
H336       H    0.6822372312    0.6956501203    0.7456347112
H337       H    0.7240165981    0.6827249723    0.7019209508
H338       H    0.8108737600    0.6840402341    0.7772380003
C339       C    0.7108455377    0.8322484940    0.8369512840
C340       C    0.6716956308    0.7924343144    0.8362439395
C341       C    0.6315794862    0.7921236154    0.8348123359
C342       C    0.6306132487    0.8316270960    0.8340880768
C343       C    0.6697631556    0.8714412755    0.8347954213
C344       C    0.7098793001    0.8717519746    0.8362270249
H345       H    0.7405419044    0.8324784920    0.8380110425
H346       H    0.6025995947    0.7626532913    0.8342887167
H347       H    0.6009168819    0.8313970980    0.8330283183
H348       H    0.7388591916    0.9012222986    0.8367506441
C349       C    0.2658857291   -0.0677981546    0.2106333740
C350       C    0.2847618340   -0.0232787233    0.2185784491
C351       C    0.2794987120   -0.0103145778    0.2511998687
C352       C    0.2553594851   -0.0418698635    0.2758762132
C353       C    0.2364833801   -0.0863892948    0.2679311381
C354       C    0.2417465021   -0.0993534403    0.2353097186
H355       H    0.2697818064   -0.0773949897    0.1864850505
H356       H    0.2934705713    0.0226389573    0.2570818174
H357       H    0.2514634077   -0.0322730284    0.3000245368
H358       H    0.2277746428   -0.1323069754    0.2294277699
C359       C    0.2966612623    0.1263313341    0.1686579988
C360       C    0.3359175109    0.1248558871    0.1686463023
C361       C    0.3759786228    0.1637544501    0.1689546662
C362       C    0.3767834860    0.2041284601    0.1692747266
C363       C    0.3375272373    0.2056039072    0.1692864230
C364       C    0.2974661255    0.1667053442    0.1689780591
H365       H    0.2670056340    0.0975362940    0.1684297294
H366       H    0.4050372263    0.1626635604    0.1689460183
H367       H    0.4064391143    0.2329235003    0.1695029960
H368       H    0.2684075219    0.1677962339    0.1689867070
C369       C    0.3704026951    0.0186618999    0.0834525158
C370       C    0.3864683087    0.0302237364    0.1167255180
C371       C    0.4279926937    0.0363271058    0.1250052886
C372       C    0.4534514650    0.0308686386    0.1000120569
C373       C    0.4373858513    0.0193068020    0.0667390547
C374       C    0.3958614664    0.0132034327    0.0584592841
H375       H    0.3396638647    0.0141438213    0.0773233350
H376       H    0.4398857180    0.0448853292    0.1496341086
H377       H    0.4841902954    0.0353867172    0.1061412377
H378       H    0.3839684421    0.0046452092    0.0338304641
C379       C    0.5417759732    0.5001431330    0.5033831398
C380       C    0.5410006187    0.5397494250    0.5031642635
C381       C    0.5009554190    0.5396427384    0.5027282784
C382       C    0.4616855740    0.4999297598    0.5025111698
C383       C    0.4624609286    0.4603234679    0.5027300461
C384       C    0.5025061282    0.4604301545    0.5031660312
H385       H    0.5714198223    0.5002221088    0.5037058820
H386       H    0.5003802370    0.5689591715    0.5025662531
H387       H    0.4320417249    0.4998507840    0.5021884276
H388       H    0.5030813102    0.4311137213    0.5033280565
C389       C    0.6037134365    0.6962600661    0.4443587019
C390       C    0.6368325439    0.6862429726    0.4523503286
C391       C    0.6770316233    0.7075741129    0.4353323671
C392       C    0.6841115952    0.7389223467    0.4103227789
C393       C    0.6509924878    0.7489394402    0.4023311522
C394       C    0.6107934085    0.7276082999    0.4193491137
H395       H    0.5739556765    0.6804694817    0.4569564136
H396       H    0.7015475411    0.7001601710    0.4412472023
H397       H    0.7138693553    0.7547129311    0.3977250671
H398       H    0.5862774907    0.7350222418    0.4134342785
C399       C    0.7260594588    0.6356377520    0.5442538363
C400       C    0.6870105594    0.6343545802    0.5540705350
C401       C    0.6794659179    0.6390945490    0.5884597327
C402       C    0.7109701758    0.6451176897    0.6130322317
C403       C    0.7500190752    0.6464008616    0.6032155330
C404       C    0.7575637167    0.6416608927    0.5688263352
H405       H    0.7316444532    0.6321289439    0.5187968977
H406       H    0.6505618226    0.6381448998    0.5957271066
H407       H    0.7053851815    0.6486264979    0.6384891703
H408       H    0.7864678121    0.6426105419    0.5615589614
C409       C    0.3088684081    1.0567947020    0.7942777591
C410       C    0.3009660800    1.0151010571    0.7845636038
C411       C    0.2989191331    1.0045014482    0.7499530281
C412       C    0.3047745143    1.0355954842    0.7250566078
C413       C    0.3126768423    1.0772891291    0.7347707631
C414       C    0.3147237892    1.0878887380    0.7693813387
H415       H    0.3103836805    1.0646411658    0.8198985748
H416       H    0.2930697932    0.9736396250    0.7427615496
H417       H    0.3032592419    1.0277490204    0.6994357920
H418       H    0.3205731291    1.1187505613    0.7765728173
C419       C    0.3498826475    0.9782840535    0.9189255528
C420       C    0.3548964471    0.9676271237    0.8854390238
C421       C    0.3921538511    0.9648850615    0.8763652346
C422       C    0.4243974556    0.9727999290    0.9007779742
C423       C    0.4193836560    0.9834568588    0.9342645032
C424       C    0.3821262520    0.9861989210    0.9433382924
H425       H    0.3223024913    0.9803138918    0.9256425137
H426       H    0.3958662268    0.9569967532    0.8515783377
H427       H    0.4519776118    0.9707700907    0.8940610133
H428       H    0.3784138763    0.9940872293    0.9681251893
C429       C    0.2090227312    0.8310014668    0.8356100377
C430       C    0.2085562639    0.8707623308    0.8355838672
C431       C    0.1686599541    0.8709653196    0.8355837336
C432       C    0.1292301116    0.8314074443    0.8356097705
C433       C    0.1296965789    0.7916465803    0.8356359411
C434       C    0.1695928887    0.7914435915    0.8356360747
H435       H    0.2385563631    0.8308512023    0.8356101366
H436       H    0.1683134141    0.9003961762    0.8355643622
H437       H    0.0996964798    0.8315577087    0.8356096716
H438       H    0.1699394287    0.7620127348    0.8356554460
C439       C    0.9369500465    0.3587448419    0.1086689488
C440       C    0.9705560074    0.3492118193    0.1160380273
C441       C    1.0106047398    0.3713845731    0.0988983677
C442       C    1.0170475113    0.4030903494    0.0743896296
C443       C    0.9834415504    0.4126233719    0.0670205512
C444       C    0.9433928180    0.3904506182    0.0841602108
H445       H    0.9073035822    0.3423312450    0.1213567488
H446       H    1.0354810201    0.3643289653    0.1043523909
H447       H    1.0466939756    0.4195039463    0.0617018297
H448       H    0.9185165377    0.3975062259    0.0787061875
C449       C    1.0584732966    0.2941376534    0.2094460249
C450       C    1.0217864501    0.2983063142    0.2177373248
C451       C    1.0164245525    0.3093599595    0.2510087311
C452       C    1.0477495014    0.3162449439    0.2759888376
C453       C    1.0844363480    0.3120762830    0.2676975377
C454       C    1.0897982456    0.3010226378    0.2344261314
H455       H    1.0624424936    0.2859550848    0.1848165423
H456       H    0.9892689093    0.3124459372    0.2571469748
H457       H    1.0437803045    0.3244275125    0.3006183202
H458       H    1.1169538887    0.2979366600    0.2282878877
C459       C    0.8563723914    0.1843542725    0.1976626310
C460       C    0.8760580433    0.2038635264    0.1666635292
C461       C    0.8560080426    0.1841253508    0.1358231239
C462       C    0.8162723901    0.1448779212    0.1359818205
C463       C    0.7965867382    0.1253686673    0.1669809223
C464       C    0.8166367389    0.1451068430    0.1978213276
H465       H    0.8712145997    0.1989656493    0.2204925415
H466       H    0.8705786576    0.1985654065    0.1128767229
H467       H    0.8014301818    0.1302665445    0.1131519101
H468       H    0.8020661238    0.1306667872    0.2207677286
C469       C    0.2723443243    0.9306831085    0.4564367440
C470       C    0.3167176066    0.9445515144    0.4509601203
C471       C    0.3301631520    0.9337597545    0.4205747509
C472       C    0.2992354152    0.9090995888    0.3956660052
C473       C    0.2548621330    0.8952311829    0.4011426289
C474       C    0.2414165875    0.9060229428    0.4315279983
H475       H    0.2623911283    0.9386718139    0.4789298096
H476       H    0.3630085234    0.9440247577    0.4165200119
H477       H    0.3091886112    0.9011108834    0.3731729395
H478       H    0.2085712161    0.8957579397    0.4355827373
C479       C    0.4672286326    0.9620820326    0.5105612986
C480       C    0.4637142939    0.9988124897    0.5010620493
C481       C    0.5010140157    1.0372920726    0.4910273449
C482       C    0.5418280763    1.0390411984    0.4904918897
C483       C    0.5453424150    1.0023107414    0.4999911390
C484       C    0.5080426932    0.9638311584    0.5100258434
H485       H    0.4396171503    0.9335971466    0.5179895863
H486       H    0.4984138950    1.0644810442    0.4839957167
H487       H    0.5694395586    1.0675260845    0.4830636019
H488       H    0.5106428139    0.9366421869    0.5170574716
C489       C    0.3335125065    1.0244313540    0.5785064761
C490       C    0.3644435773    1.0457153200    0.5527753487
C491       C    0.3876941051    1.0914727055    0.5515857602
C492       C    0.3800135621    1.1159461251    0.5761272990
C493       C    0.3490824913    1.0946621591    0.6018584264
C494       C    0.3258319635    1.0489047735    0.6030480150
H495       H    0.3163010768    0.9905590036    0.5793870806
H496       H    0.4105899095    1.1072284696    0.5325396335
H497       H    0.3972249917    1.1498184755    0.5752466945
H498       H    0.3029361590    1.0331490095    0.6220941417
C499       C    0.0601455187    0.3967660198    0.9144923955
C500       C    0.0357404643    0.3852662840    0.8842666967
C501       C    0.0038476049    0.3978432107    0.8790598054
C502       C   -0.0036402002    0.4219198732    0.9040786129
C503       C    0.0207648542    0.4334196090    0.9343043116
C504       C    0.0526577137    0.4208426822    0.9395112029
H505       H    0.0837545186    0.3874558273    0.9183468475
H506       H   -0.0142179390    0.3893315452    0.8566866859
H507       H   -0.0272492000    0.4312300657    0.9002241608
H508       H    0.0707232575    0.4293543478    0.9618843225
C509       C    0.1689555473    0.3680887201    0.8214108639
C510       C    0.1307610075    0.3333195654    0.8348301447
C511       C    0.1318542986    0.2971527173    0.8490351088
C512       C    0.1711421295    0.2957550239    0.8498207921
C513       C    0.2093366692    0.3305241786    0.8364015114
C514       C    0.2082433781    0.3666910267    0.8221965473
H515       H    0.1681462279    0.3948615817    0.8108955009
H516       H    0.1035828706    0.2714155679    0.8589684623
H517       H    0.1719514488    0.2689821623    0.8603361552
H518       H    0.2365148061    0.3924281761    0.8122631938
C519       C   -0.0015849320    0.2842548384    0.7485843162
C520       C   -0.0140613190    0.2838341787    0.7825497048
C521       C   -0.0579235760    0.2581781610    0.7920691835
C522       C   -0.0893094462    0.2329428031    0.7676232736
C523       C   -0.0768330593    0.2333634628    0.7336578850
C524       C   -0.0329708022    0.2590194805    0.7241384063
H525       H    0.0308845310    0.3032469553    0.7415374294
H526       H   -0.0671599414    0.2578659783    0.8172105447
H527       H   -0.1217789092    0.2139506862    0.7746701604
H528       H   -0.0237344369    0.2593316632    0.6989970451
C529       C    0.7964505939    0.6256177227    0.1686880748
C530       C    0.7959268650    0.6653501450    0.1686060930
C531       C    0.8353273650    0.7049358736    0.1686889844
C532       C    0.8752515938    0.7047891799    0.1688538577
C533       C    0.8757753227    0.6650567575    0.1689358395
C534       C    0.8363748227    0.6254710289    0.1688529480
H535       H    0.7672839900    0.5963140015    0.1686267136
H536       H    0.8349409497    0.7343469242    0.1686283045
H537       H    0.9044181977    0.7340929010    0.1689152189
H538       H    0.8367612380    0.5960599783    0.1689136280
C539       C    0.6583459245    0.5905986486    0.0937000399
C540       C    0.6494599682    0.6147756203    0.1177207283
C541       C    0.6091888650    0.6141948564    0.1171437185
C542       C    0.5778037181    0.5894371207    0.0925460202
C543       C    0.5866896744    0.5652601489    0.0685253318
C544       C    0.6269607776    0.5658409129    0.0691023417
H545       H    0.6881570010    0.5910285648    0.0941271771
H546       H    0.6026102373    0.6320905466    0.1349237284
H547       H    0.5479926417    0.5890072045    0.0921188831
H548       H    0.6335394053    0.5479452227    0.0513223318
C549       C    0.7028484562    0.7080487753    0.2536549750
C550       C    0.7005882780    0.7165480910    0.2190264429
C551       C    0.6917855379    0.7499603489    0.2092433596
C552       C    0.6852429760    0.7748732911    0.2340888083
C553       C    0.6875031541    0.7663739754    0.2687173403
C554       C    0.6963058942    0.7329617175    0.2785004236
H555       H    0.7093647703    0.6833150259    0.2608969977
H556       H    0.6901122835    0.7562525696    0.1836111337
H557       H    0.6787266618    0.7996070405    0.2268467856
H558       H    0.6979791487    0.7266694968    0.3041326496
C559       C    0.6834651230    0.0776348730    0.5748921644
C560       C    0.6924814679    0.0543043730    0.5501807139
C561       C    0.7326380309    0.0546397432    0.5505359349
C562       C    0.7637782491    0.0783056134    0.5756026064
C563       C    0.7547619042    0.1016361133    0.6003140569
C564       C    0.7146053412    0.1013007431    0.5999588359
H565       H    0.6537388361    0.0773866119    0.5746292086
H566       H    0.7393131682    0.0373706007    0.5322446183
H567       H    0.7935045360    0.0785538744    0.5758655622
H568       H    0.7079302039    0.1185698856    0.6182501525
C569       C    0.6807471369   -0.0477401234    0.4481101430
C570       C    0.6413045458   -0.0466637688    0.4491294982
C571       C    0.6079952046   -0.0713034521    0.4257946352
C572       C    0.6141284545   -0.0970194901    0.4014404170
C573       C    0.6535710456   -0.0980958447    0.4004210619
C574       C    0.6868803868   -0.0734561614    0.4237559249
H575       H    0.7054047012   -0.0295003578    0.4653840027
H576       H    0.5787988848   -0.0705075180    0.4265484197
H577       H    0.5894708902   -0.1152592556    0.3841665574
H578       H    0.7160767066   -0.0742520955    0.4230021403
C579       C    0.3953112089    0.4129650396    0.8776909280
C580       C    0.3541526146    0.3798730514    0.8881639908
C581       C    0.3445415390    0.3720828517    0.9229602950
C582       C    0.3760890577    0.3973846402    0.9472835364
C583       C    0.4172476520    0.4304766284    0.9368104735
C584       C    0.4268587276    0.4382668281    0.9020141693
H585       H    0.4024259012    0.4187318108    0.8519326248
H586       H    0.3140757897    0.3475880331    0.9307135202
H587       H    0.3689743654    0.3916178690    0.9730418395
H588       H    0.4573244769    0.4627616467    0.8942609442
C589       C    0.2776478019    0.2311674302    0.7878598781
C590       C    0.3010291951    0.2769046091    0.7863232916
C591       C    0.3302581212    0.2977810267    0.7594899714
C592       C    0.3361056541    0.2729202654    0.7341932378
C593       C    0.3127242610    0.2271830865    0.7357298243
C594       C    0.2834953348    0.2063066689    0.7625631444
H595       H    0.2560108046    0.2157134587    0.8077235046
H596       H    0.3475658703    0.3316361847    0.7583517464
H597       H    0.3577426514    0.2883742369    0.7143296112
H598       H    0.2661875857    0.1724515109    0.7637013695
C599       C    1.0102150976    0.6128077763    0.1169795504
C600       C    0.9708246086    0.6139754809    0.1181550553
C601       C    0.9378301146    0.5903073638    0.0943288346
C602       C    0.9442261097    0.5654715421    0.0693271090
C603       C    0.9836165988    0.5643038375    0.0681516041
C604       C    1.0166110927    0.5879719546    0.0919778248
H605       H    1.0346395931    0.6303283305    0.1346171424
H606       H    0.9086723704    0.5911709455    0.0951981851
H607       H    0.9198016142    0.5479509878    0.0516895170
H608       H    1.0457688369    0.5871083728    0.0911084743
C609       C    1.0220633178    0.6964035776    0.2514132101
C610       C    1.0228986807    0.7147464215    0.2194857445
C611       C    1.0554933127    0.7574581972    0.2120347150
C612       C    1.0872525818    0.7818271290    0.2365111511
C613       C    1.0864172189    0.7634842850    0.2684386167
C614       C    1.0538225869    0.7207725094    0.2758896462
H615       H    0.9979348240    0.6647857696    0.2569289072
H616       H    1.0561126768    0.7710368568    0.1884018826
H617       H    1.1113810756    0.8134449369    0.2309954539
H618       H    1.0532032228    0.7071938498    0.2995224785
C619       C    0.3977924696    0.3011587781    0.5609198109
C620       C    0.3650244493    0.3116732503    0.5529049505
C621       C    0.3244600451    0.2900609084    0.5693793774
C622       C    0.3166636613    0.2579340943    0.5938686647
C623       C    0.3494316816    0.2474196222    0.6018835251
C624       C    0.3899960858    0.2690319640    0.5854090983
H625       H    0.4278206649    0.3171575246    0.5487244560
H626       H    0.3002039892    0.2978429994    0.5634473276
H627       H    0.2866354660    0.2419353478    0.6060640197
H628       H    0.4142521417    0.2612498730    0.5913411481
C629       C    0.3159839262    0.3992890387    0.4355276309
C630       C    0.3164557580    0.3636262170    0.4513135700
C631       C    0.2853996647    0.3209155904    0.4422580614
C632       C    0.2538717397    0.3138677853    0.4174166137
C633       C    0.2533999079    0.3495306070    0.4016306746
C634       C    0.2844560011    0.3922412336    0.4106861832
H635       H    0.3389735017    0.4309059961    0.4422310594
H636       H    0.2857479301    0.2945167449    0.4539424708
H637       H    0.2308821642    0.2822508279    0.4107131852
H638       H    0.2841077357    0.4186400791    0.3990017737
C639       C    0.0675127851    0.6358751278    0.8936309544
C640       C    0.0345345909    0.6462139717    0.8859568346
C641       C   -0.0056762920    0.6247797906    0.9029498065
C642       C   -0.0129089807    0.5930067654    0.9276168983
C643       C    0.0200692135    0.5826679215    0.9352910181
C644       C    0.0602800964    0.6041021027    0.9182980462
H645       H    0.0972792829    0.6517419892    0.8810517414
H646       H   -0.0300879068    0.6324318878    0.8972699881
H647       H   -0.0426754785    0.5771399041    0.9401961113
H648       H    0.0846917112    0.5964500055    0.9239778646
C649       C   -0.0081770776    0.6919020939    0.7505536499
C650       C   -0.0161828837    0.6962067860    0.7849204988
C651       C   -0.0559655580    0.6933480644    0.7946410084
C652       C   -0.0877424263    0.6861846507    0.7699946690
C653       C   -0.0797366203    0.6818799586    0.7356278201
C654       C   -0.0399539459    0.6847386802    0.7259073106
H655       H    0.0212724345    0.6940182905    0.7433579481
H656       H   -0.0618926861    0.6965342917    0.8200795355
H657       H   -0.1171919384    0.6840684541    0.7771903709
H658       H   -0.0340268178    0.6815524529    0.7004687835
C659       C    0.6608965661   -0.0423193631    0.2348246466
C660       C    0.7014887420   -0.0195783085    0.2185199602
C661       C    0.7353695853   -0.0282361439    0.2270809461
C662       C    0.7286582526   -0.0596350340    0.2519466183
C663       C    0.6880660767   -0.0823760885    0.2682513047
C664       C    0.6541852334   -0.0737182531    0.2596903188
H665       H    0.6358159419   -0.0359103161    0.2284872934
H666       H    0.7654168419   -0.0114035702    0.2150125461
H667       H    0.7537388768   -0.0660440810    0.2582839715
H668       H    0.6241379768   -0.0905508269    0.2717587188
C669       C    0.6518655089    0.0690961070    0.1009499466
C670       C    0.6515196471    0.0327832745    0.1162718818
C671       C    0.6200402941   -0.0095369048    0.1066870267
C672       C    0.5889068029   -0.0155442516    0.0817802363
C673       C    0.5892526647    0.0207685808    0.0664583010
C674       C    0.6207320177    0.0630887601    0.0760431562
H675       H    0.6751684066    0.1004240319    0.1080452290
H676       H    0.6197832923   -0.0364168736    0.1180279654
H677       H    0.5656039053   -0.0468721765    0.0746849539
H678       H    0.6209890196    0.0899687289    0.0647022175
C679       C    0.0361373574    0.7051733531    0.4317220144
C680       C    0.0537117337    0.6826077265    0.4495128643
C681       C    0.0964407603    0.6912362223    0.4427101162
C682       C    0.1215954106    0.7224303446    0.4181165183
C683       C    0.1040210343    0.7449959712    0.4003256684
C684       C    0.0612920077    0.7363674755    0.4071284164
H685       H    0.0045067792    0.6987860251    0.4367578149
H686       H    0.1094506034    0.6745334987    0.4558786248
H687       H    0.1532259887    0.7288176727    0.4130807177
H688       H    0.0482821645    0.7530701990    0.3939599079
C689       C   -0.0825440552    0.6407875742    0.5421728500
C690       C   -0.0490955450    0.6319245280    0.5517293179
C691       C   -0.0403878118    0.6295878292    0.5862993252
C692       C   -0.0651285888    0.6361141767    0.6113128647
C693       C   -0.0985770991    0.6449772229    0.6017563968
C694       C   -0.1072848323    0.6473139216    0.5671863895
H695       H   -0.0889900396    0.6425173382    0.5165820654
H696       H   -0.0156290678    0.6230273600    0.5933740828
H697       H   -0.0586826045    0.6343844127    0.6369036493
H698       H   -0.1320435762    0.6538743909    0.5601116319
C699       C    0.5863622086    0.9782350700    0.8739831641
C700       C    0.6185109430    0.9676504610    0.8839125609
C701       C    0.6265549887    0.9649745848    0.9185774188
C702       C    0.6024503001    0.9728833176    0.9433128799
C703       C    0.5703015656    0.9834679266    0.9333834831
C704       C    0.5622575199    0.9861438028    0.8987186252
H705       H    0.5804075253    0.9802159134    0.8483221654
H706       H    0.6503516223    0.9571398102    0.9259282201
H707       H    0.6084049833    0.9709024742    0.9689738786
H708       H    0.5384608864    0.9939785775    0.8913678240
C709       C    0.7022673538    1.0394516369    0.7650130914
C710       C    0.7199408099    1.0168220075    0.7825856677
C711       C    0.7627225881    1.0256625188    0.7757207493
C712       C    0.7878309103    1.0571326594    0.7512832546
C713       C    0.7701574542    1.0797622887    0.7337106783
C714       C    0.7273756760    1.0709217775    0.7405755967
H715       H    0.6705977258    1.0329073623    0.7700949141
H716       H    0.7758057714    1.0089124273    0.7887276905
H717       H    0.8195005383    1.0636769339    0.7462014319
H718       H    0.7142924927    1.0876718689    0.7275686555
C719       C    0.3940508960    0.3393541914    0.0865266886
C720       C    0.3888300943    0.3528435284    0.1189570816
C721       C    0.4078485724    0.3974877737    0.1264883610
C722       C    0.4320878521    0.4286426821    0.1015892474
C723       C    0.4373086538    0.4151533451    0.0691588544
C724       C    0.4182901758    0.3705090997    0.0616275750
H725       H    0.3799722824    0.3063058539    0.0809515856
H726       H    0.4039847554    0.4074739459    0.1504934610
H727       H    0.4461664658    0.4616910195    0.1071643503
H728       H    0.4221539927    0.3605229275    0.0376224750
C729       C    0.2464493281    0.2965967550    0.2112206472
C730       C    0.2874331520    0.3016621742    0.2200422769
C731       C    0.3030011937    0.3129250326    0.2534630541
C732       C    0.2775854116    0.3191224719    0.2780622018
C733       C    0.2366015877    0.3140570527    0.2692405721
C734       C    0.2210335459    0.3027941942    0.2358197948
H735       H    0.2349249335    0.2882593143    0.1864805913
H736       H    0.3333377672    0.3166747944    0.2599938507
H737       H    0.2891098062    0.3274599126    0.3028022577
H738       H    0.1906969724    0.2990444325    0.2292889982
loop_
_geom_bond_atom_site_label_1
_geom_bond_atom_site_label_2
_geom_bond_distance
_geom_bond_site_symmetry_2
_ccdc_geom_bond_type
C511       H516 1.140       .   S
C512       H517 1.140       .   S
C509       H515 1.140       .   S
C514       H518 1.140       .   S
C694       H698 1.140       .   S
C689       H695 1.140       .   S
C692       H697 1.140       .   S
C691       H696 1.140       .   S
C562       H567 1.140       .   S
C562       C563 1.540       .   A
C561       C562 1.540       .   A
C563       C564 1.540       .   A
C563       C246 1.616       .   S
C560        C82 1.612       .   S
C560       C561 1.540       .   A
C559       C560 1.540       .   A
C561       H566 1.140       .   S
O238      Cu242 1.951       .   S
O238       C245 1.251       .   A
O239      Cu242 1.951       .   S
O239       C244 1.250       .   A
O236       C246 1.250       .   A
O236      Cu241 1.951       .   S
O237      Cu242 1.951       .   S
O237       C246 1.250       .   A
O234      Cu241 1.951       .   S
O234       C244 1.250       .   A
O235       C245 1.250       .   A
O235      Cu241 1.951       .   S
O233       C243 1.250       .   A
O233      Cu241 1.951       .   S
C245       C523 1.658   1_655   S
C244       C313 1.614   1_655   S
C344       H348 1.140       .   S
C461       H466 1.140       .   S
C462       H467 1.140       .   S
C459       H465 1.140       .   S
C373       C260 1.624   1_554   S
C373       C374 1.540       .   A
C372       C373 1.540       .   A
C464       H468 1.140       .   S
C342       H347 1.140       .   S
C341       H346 1.140       .   S
C339       H345 1.140       .   S
C371       H376 1.140       .   S
C371       C372 1.540       .   A
C370       C371 1.540       .   A
C370        C23 1.621       .   S
C369       C370 1.540       .   A
C479       C480 1.540       .   A
C479       C484 1.540       .   A
C479       H485 1.140       .   S
C610       C611 1.540       .   A
C611       C612 1.540       .   A
C611       H616 1.140       .   S
O278      Cu283 1.951       .   S
Cu283     Cu284 2.630       .   S
O276      Cu283 1.951       .   S
O277      Cu283 1.951       .   S
O275      Cu283 1.951       .   S
O282      Cu284 1.951       .   S
O281      Cu284 1.951       .   S
O279      Cu284 1.951       .   S
O280      Cu284 1.951       .   S
O163       C173 1.250       .   A
O163      Cu171 1.951       .   S
O166      Cu171 1.951       .   S
O166       C176 1.250       .   A
O167       C176 1.250       .   A
O167      Cu172 1.951       .   S
O164      Cu171 1.951       .   S
O164       C174 1.250       .   A
O165       C175 1.250       .   A
O165      Cu171 1.951       .   S
O168       C175 1.251       .   A
O168      Cu172 1.951       .   S
O169       C174 1.250       .   A
O169      Cu172 1.951       .   S
C669       C670 1.540       .   A
C669       H675 1.140       .   S
C669       C674 1.540       .   A
C482       C483 1.540       .   A
C483        C84 1.610   1_565   S
C483       C484 1.540       .   A
O223       C232 1.250       .   A
O222       C232 1.250       .   A
C232       C473 1.630       .   S
C481       C482 1.540       .   A
C482       H487 1.140       .   S
O220       C230 1.250       .   A
O225       C230 1.250       .   A
C230       C353 1.622   1_565   S
C484       H488 1.140       .   S
O266      Cu270 1.951       .   S
O266       C273 1.251       .   A
C612       H617 1.140       .   S
C612       C613 1.540       .   A
C690       C691 1.540       .   A
C691       C692 1.540       .   A
C15         H18 1.140       .   S
C46         C47 1.540       .   A
C46         C51 1.540       .   A
C46        C450 1.629       .   S
C47         C48 1.540       .   A
C47         H52 1.140       .   S
C40         H44 1.140       .   S
C39         C40 1.540       .   A
C40         C41 1.540       .   A
C41         C42 1.540       .   A
C41        C410 1.613       .   S
C42         H45 1.140       .   S
C37         C42 1.540       .   A
C641       H646 1.140       .   S
C642       H647 1.140       .   S
C639       H645 1.140       .   S
C48         C49 1.540       .   A
C48        C440 1.622       .   S
C49         H53 1.140       .   S
C49         C50 1.540       .   A
C11         H16 1.140       .   S
C13         H17 1.140       .   S
C592       C593 1.540       .   A
C593       C204 1.611       .   S
C593       C594 1.540       .   A
C592       H597 1.140       .   S
C591       C592 1.540       .   A
C591       H596 1.140       .   S
C590       C591 1.540       .   A
C590        C95 1.609       .   S
C589       C590 1.540       .   A
C589       C594 1.540       .   A
C594       H598 1.140       .   S
O210      Cu214 1.951       .   S
O211      Cu214 1.951       .   S
O209      Cu214 1.951       .   S
O212      Cu214 1.951       .   S
Cu213     Cu214 2.630       .   S
C599       C600 1.540       .   A
C599       H605 1.140       .   S
C599       C604 1.540       .   A
O208      Cu213 1.951       .   S
O207      Cu213 1.951       .   S
O206      Cu213 1.951       .   S
O205      Cu213 1.951       .   S
C289       H295 1.140       .   S
C292       H297 1.140       .   S
C291       H296 1.140       .   S
C294       H298 1.140       .   S
C112       H116 1.140       .   S
C114       H117 1.140       .   S
C110       H115 1.140       .   S
C699       C700 1.540       .   A
C699       H705 1.140       .   S
C699       C704 1.540       .   A
C349       C354 1.540       .   A
C349       C350 1.540       .   A
C349       H355 1.140       .   S
C609       C614 1.540       .   A
C613       C614 1.540       .   A
C614       H618 1.140       .   S
C693       C288 1.643   1_455   S
C692       C693 1.540       .   A
C693       C694 1.540       .   A
C342       C343 1.540       .   A
C341       C342 1.540       .   A
C343       C344 1.540       .   A
C343       C147 1.581       .   S
C339       C340 1.540       .   A
C340       C341 1.540       .   A
C340        C14 1.581       .   S
C689       C694 1.540       .   A
C339       C344 1.540       .   A
C643       C644 1.540       .   A
C644       H648 1.140       .   S
C639       C644 1.540       .   A
C492       H497 1.140       .   S
C491       H496 1.140       .   S
C489       H495 1.140       .   S
C494       H498 1.140       .   S
C642       C643 1.540       .   A
C641       C642 1.540       .   A
C519       C524 1.540       .   A
C524       H528 1.140       .   S
C523       C524 1.540       .   A
C522       H527 1.140       .   S
C522       C523 1.540       .   A
C521       C522 1.540       .   A
C289       C294 1.540       .   A
C289       C290 1.540       .   A
O278       C288 1.250       .   A
O279       C288 1.250       .   A
C287       C333 1.601       .   S
O280       C287 1.251       .   A
O277       C287 1.250       .   A
O281       C286 1.250       .   A
C286       C403 1.626       .   S
O276       C286 1.250       .   A
O282       C285 1.250       .   A
C285       C653 1.637   1_655   S
O275       C285 1.250       .   A
C529       C530 1.540       .   A
C529       C534 1.540       .   A
C529       H535 1.140       .   S
C449       C450 1.540       .   A
C449       H455 1.140       .   S
C449       C454 1.540       .   A
C439       C440 1.540       .   A
C440       C441 1.540       .   A
C119       C120 1.540       .   A
C119       H124 1.140       .   S
C118       C119 1.540       .   A
C118       C650 1.632       .   S
C118       C123 1.540       .   A
C439       C444 1.540       .   A
C444       H448 1.140       .   S
C443       C444 1.540       .   A
C113       C114 1.540       .   A
C109       C114 1.540       .   A
C112       C113 1.540       .   A
C113       C630 1.620       .   S
C111       C112 1.540       .   A
C111       C383 1.649       .   S
C110       C111 1.540       .   A
C109       C110 1.540       .   A
C559       C564 1.540       .   A
C564       H568 1.140       .   S
C421       H426 1.140       .   S
C243       C713 1.662   1_545   S
O240       C243 1.250       .   A
C419       H425 1.140       .   S
C384       H388 1.140       .   S
C382       H387 1.140       .   S
C381       H386 1.140       .   S
C379       H385 1.140       .   S
C424       H428 1.140       .   S
C569       C574 1.540       .   A
C569       C570 1.540       .   A
C569       H575 1.140       .   S
C544       H548 1.140       .   S
C539       H545 1.140       .   S
C542       H547 1.140       .   S
C541       H546 1.140       .   S
O265      Cu270 1.951       .   S
O265       C274 1.250       .   A
O264      Cu269 1.951       .   S
O264       C274 1.250       .   A
O267      Cu270 1.951       .   S
O267       C272 1.250       .   A
O221       C231 1.250       .   A
C613       C231 1.624   1_655   S
O224       C231 1.251       .   A
O261      Cu269 1.951       .   S
O261       C271 1.250       .   A
O263      Cu269 1.951       .   S
O263       C273 1.250       .   A
O262      Cu269 1.951       .   S
O262       C272 1.250       .   A
O268      Cu270 1.951       .   S
O268       C271 1.250       .   A
C584       H588 1.140       .   S
C634       H638 1.140       .   S
C422       H427 1.140       .   S
C290       C291 1.540       .   A
C291       C292 1.540       .   A
C629       C634 1.540       .   A
C629       H635 1.140       .   S
C629       C630 1.540       .   A
C632       H637 1.140       .   S
C631       H636 1.140       .   S
C620       C621 1.540       .   A
C621       H626 1.140       .   S
C621       C622 1.540       .   A
C109       C620 1.644       .   S
C619       C620 1.540       .   A
C623       C201 1.649       .   S
C622       C623 1.540       .   A
C623       C624 1.540       .   A
C622       H627 1.140       .   S
Cu171     Cu172 2.630       .   S
C619       C624 1.540       .   A
C624       H628 1.140       .   S
O170      Cu172 1.951       .   S
C331       H336 1.140       .   S
C332       H337 1.140       .   S
C570        C86 1.610       .   S
C570       C571 1.540       .   A
C329       H335 1.140       .   S
C334       H338 1.140       .   S
C519       H525 1.140       .   S
C519       C520 1.540       .   A
O193       C203 1.250       .   A
O193      Cu199 1.951       .   S
O192       C202 1.250       .   A
O192      Cu199 1.951       .   S
O191       C201 1.250       .   A
O191      Cu199 1.951       .   S
O197      Cu200 1.951       .   S
O197       C202 1.250       .   A
O196      Cu200 1.951       .   S
O196       C203 1.251       .   A
O195       C204 1.250       .   A
O195      Cu200 1.951       .   S
O194       C204 1.250       .   A
O194      Cu199 1.951       .   S
O198      Cu200 1.951       .   S
O198       C201 1.250       .   A
C724       H728 1.140       .   S
O247      Cu255 1.951       .   S
O250      Cu255 1.951       .   S
Cu255     Cu256 2.630       .   S
O249      Cu255 1.951       .   S
O248      Cu255 1.951       .   S
O254      Cu256 1.951       .   S
O251      Cu256 1.951       .   S
O252      Cu256 1.951       .   S
O253      Cu256 1.951       .   S
C719       H725 1.140       .   S
C722       H727 1.140       .   S
C721       H726 1.140       .   S
C512       C513 1.540       .   A
C513        C93 1.587       .   S
C513       C514 1.540       .   A
C710       C711 1.540       .   A
C711       H716 1.140       .   S
C711       C712 1.540       .   A
C709       C710 1.540       .   A
C710       C145 1.659       .   S
C713       C714 1.540       .   A
C712       C713 1.540       .   A
C499       C500 1.540       .   A
C499       H505 1.140       .   S
C499       C504 1.540       .   A
C489       C494 1.540       .   A
C493       C494 1.540       .   A
C148       H152 1.140       .   S
C150       H153 1.140       .   S
C490        C55 1.637       .   S
C489       C490 1.540       .   A
C490       C491 1.540       .   A
C146       H151 1.140       .   S
C509       C510 1.540       .   A
C510       C511 1.540       .   A
C510        C66 1.587       .   S
C659       C664 1.540       .   A
C659       C660 1.540       .   A
C659       H665 1.140       .   S
C309       C310 1.540       .   A
C309       C314 1.540       .   A
C309       H315 1.140       .   S
C654       H658 1.140       .   S
C649       C654 1.540       .   A
C653       C654 1.540       .   A
C304       H308 1.140       .   S
C299       C304 1.540       .   A
C303       C304 1.540       .   A
C302       H307 1.140       .   S
C302       C303 1.540       .   A
C301       C302 1.540       .   A
C272       C303 1.603       .   S
C299       C300 1.540       .   A
C300       C301 1.540       .   A
C300         C3 1.601       .   S
C301       H306 1.140       .   S
C509       C514 1.540       .   A
C609       H615 1.140       .   S
C589       H595 1.140       .   S
O221      Cu227 1.951       .   S
O219      Cu227 1.951       .   S
O222      Cu227 1.951       .   S
Cu227     Cu228 2.630       .   S
O220      Cu227 1.951       .   S
C39        C430 1.601       .   S
C38         C39 1.540       .   A
C38         H43 1.140       .   S
C37         C38 1.540       .   A
C37        C420 1.608       .   S
C31         H35 1.140       .   S
C30         C31 1.540       .   A
C31         C32 1.540       .   A
C30        C400 1.623       .   S
C29         C30 1.540       .   A
C28         C33 1.540       .   A
C33         H36 1.140       .   S
C32         C33 1.540       .   A
C380        C32 1.649       .   S
C400       C401 1.540       .   A
C401       C402 1.540       .   A
C401       H406 1.140       .   S
C399       C400 1.540       .   A
C402       C403 1.540       .   A
C403       C404 1.540       .   A
C149       C150 1.540       .   A
C145       C150 1.540       .   A
C157       H161 1.140       .   S
C157       C158 1.540       .   A
C156       C157 1.540       .   A
C155       C156 1.540       .   A
C156       C730 1.598       .   S
C155       H160 1.140       .   S
C154       C155 1.540       .   A
C154       C159 1.540       .   A
C720       C154 1.615       .   S
C409       C414 1.540       .   A
C409       H415 1.140       .   S
C409       C410 1.540       .   A
C159       H162 1.140       .   S
C158       C159 1.540       .   A
C158       C363 1.643       .   S
C51         H54 1.140       .   S
C28        C390 1.617       .   S
C390       C391 1.540       .   A
C389       C390 1.540       .   A
C393       C190 1.620       .   S
C392       C393 1.540       .   A
C393       C394 1.540       .   A
C391       C392 1.540       .   A
C392       H397 1.140       .   S
C394       H398 1.140       .   S
C389       C394 1.540       .   A
C399       C404 1.540       .   A
C399       H405 1.140       .   S
C24         H27 1.140       .   S
O254       C257 1.250       .   A
C649       H655 1.140       .   S
O250       C260 1.250       .   A
O251       C260 1.250       .   A
O252       C259 1.251       .   A
O253       C258 1.250       .   A
C652       H657 1.140       .   S
C502       H507 1.140       .   S
C501       H506 1.140       .   S
C504       H508 1.140       .   S
C651       H656 1.140       .   S
C274       C633 1.623       .   S
C273       C453 1.632   1_455   S
C271       C733 1.600       .   S
C474       H478 1.140       .   S
C469       C474 1.540       .   A
C473       C474 1.540       .   A
C470        C59 1.626       .   S
C469       C470 1.540       .   A
C470       C471 1.540       .   A
C471       H476 1.140       .   S
C471       C472 1.540       .   A
C472       H477 1.140       .   S
C472       C473 1.540       .   A
O223      Cu228 1.951       .   S
O225      Cu228 1.951       .   S
O224      Cu228 1.951       .   S
C573       C188 1.611   1_545   S
C573       C574 1.540       .   A
C572       C573 1.540       .   A
O226       C229 1.250       .   A
O226      Cu228 1.951       .   S
C712       H717 1.140       .   S
C372       H377 1.140       .   S
C369       H375 1.140       .   S
C374       H378 1.140       .   S
C571       H576 1.140       .   S
C572       H577 1.140       .   S
C469       H475 1.140       .   S
C574       H578 1.140       .   S
C609       C610 1.540       .   A
C610       C100 1.620       .   S
C364       H368 1.140       .   S
C359       C364 1.540       .   A
C363       C364 1.540       .   A
C571       C572 1.540       .   A
O179      Cu185 1.951       .   S
O179       C189 1.250       .   A
O178       C188 1.250       .   A
O178      Cu185 1.951       .   S
C619       H625 1.140       .   S
O177       C187 1.250       .   A
O177      Cu185 1.951       .   S
O170       C173 1.250       .   A
C729       C734 1.540       .   A
C729       H735 1.140       .   S
C729       C730 1.540       .   A
C714       H718 1.140       .   S
C709       C714 1.540       .   A
C391       H396 1.140       .   S
C73         C78 1.540       .   A
C78         H81 1.140       .   S
C77         C78 1.540       .   A
C709       H715 1.140       .   S
C20         H25 1.140       .   S
C720       C721 1.540       .   A
C719       C720 1.540       .   A
C73         C74 1.540       .   A
C540        C73 1.626       .   S
C22         H26 1.140       .   S
C74         C75 1.540       .   A
C75         C76 1.540       .   A
C75        C550 1.608       .   S
C74         H79 1.140       .   S
C530        C77 1.622       .   S
C76         C77 1.540       .   A
C76         H80 1.140       .   S
Cu269     Cu270 2.630       .   S
C103       H107 1.140       .   S
C101       H106 1.140       .   S
C723       C724 1.540       .   A
C722       C723 1.540       .   A
C218       C723 1.617       .   S
C719       C724 1.540       .   A
C105       H108 1.140       .   S
C354       H358 1.140       .   S
C353       C354 1.540       .   A
C350       C351 1.540       .   A
C351       H356 1.140       .   S
C351       C352 1.540       .   A
C350        C19 1.619       .   S
C352       C353 1.540       .   A
C352       H357 1.140       .   S
C492       C493 1.540       .   A
C491       C492 1.540       .   A
C359       H365 1.140       .   S
C359       C360 1.540       .   A
C721       C722 1.540       .   A
C493       C203 1.641   1_565   S
C689       C690 1.540       .   A
C229       C683 1.632       .   S
C682       C683 1.540       .   A
C683       C684 1.540       .   A
C681       C682 1.540       .   A
C682       H687 1.140       .   S
C680       C681 1.540       .   A
C681       H686 1.140       .   S
C684       H688 1.140       .   S
C679       C684 1.540       .   A
C530       C531 1.540       .   A
C531       C532 1.540       .   A
C531       H536 1.140       .   S
C533       C104 1.622       .   S
C532       C533 1.540       .   A
C533       C534 1.540       .   A
C532       H537 1.140       .   S
C534       H538 1.140       .   S
C664       H668 1.140       .   S
C663       C664 1.540       .   A
C539       C544 1.540       .   A
C539       C540 1.540       .   A
C679       H685 1.140       .   S
C439       H445 1.140       .   S
C128       C129 1.540       .   A
C127       C128 1.540       .   A
C128       H133 1.140       .   S
C129       C130 1.540       .   A
C463       C129 1.610       .   S
C121       C122 1.540       .   A
C122       C123 1.540       .   A
C122       C433 1.601       .   S
C123       H126 1.140       .   S
C640       C120 1.598       .   S
C120       C121 1.540       .   A
C121       H125 1.140       .   S
C434       H438 1.140       .   S
C429       C434 1.540       .   A
C433       C434 1.540       .   A
C127       C132 1.540       .   A
C660       C127 1.633       .   S
C660       C661 1.540       .   A
C663       C189 1.635   1_545   S
C662       C663 1.540       .   A
C649       C650 1.540       .   A
C650       C651 1.540       .   A
C661       C662 1.540       .   A
C662       H667 1.140       .   S
C651       C652 1.540       .   A
C429       H435 1.140       .   S
C652       C653 1.540       .   A
C432       H437 1.140       .   S
C431       H436 1.140       .   S
C92         C93 1.540       .   A
C93         C94 1.540       .   A
C91         C92 1.540       .   A
C92         H97 1.140       .   S
C91         C96 1.540       .   A
C580        C91 1.639       .   S
C96         H99 1.140       .   S
C95         C96 1.540       .   A
C94         C95 1.540       .   A
C94         H98 1.140       .   S
O210       C217 1.251       .   A
O211       C216 1.250       .   A
O212       C215 1.250       .   A
O219       C229 1.250       .   A
C540       C541 1.540       .   A
C541       C542 1.540       .   A
C542       C543 1.540       .   A
C543       C544 1.540       .   A
C215       C543 1.628       .   S
C549       H555 1.140       .   S
C549       C554 1.540       .   A
C549       C550 1.540       .   A
C552       C553 1.540       .   A
C552       H557 1.140       .   S
C551       C552 1.540       .   A
C551       H556 1.140       .   S
C550       C551 1.540       .   A
C187       C553 1.610       .   S
C553       C554 1.540       .   A
C441       H446 1.140       .   S
C442       H447 1.140       .   S
C324       H328 1.140       .   S
C319       H325 1.140       .   S
C322       H327 1.140       .   S
C321       H326 1.140       .   S
C480       C481 1.540       .   A
C481       H486 1.140       .   S
C480        C57 1.608       .   S
C139       H143 1.140       .   S
C137       H142 1.140       .   S
C661       H666 1.140       .   S
C141       H144 1.140       .   S
C319       C320 1.540       .   A
C319       C324 1.540       .   A
C310       C311 1.540       .   A
C311       H316 1.140       .   S
C311       C312 1.540       .   A
C310         C1 1.610       .   S
C312       C313 1.540       .   A
C313       C314 1.540       .   A
C312       H317 1.140       .   S
C176       C643 1.602   1_554   S
C314       H318 1.140       .   S
C640       C641 1.540       .   A
C639       C640 1.540       .   A
C631       C632 1.540       .   A
C630       C631 1.540       .   A
C22         C23 1.540       .   A
C21         C22 1.540       .   A
C23         C24 1.540       .   A
C19         C20 1.540       .   A
C20         C21 1.540       .   A
C21        C360 1.644       .   S
C19         C24 1.540       .   A
C28         C29 1.540       .   A
C29         H34 1.140       .   S
C579       H585 1.140       .   S
C582       H587 1.140       .   S
C581       H586 1.140       .   S
C130       H134 1.140       .   S
C132       H135 1.140       .   S
C369       C374 1.540       .   A
C56         H61 1.140       .   S
C60         H63 1.140       .   S
C58         H62 1.140       .   S
C360       C361 1.540       .   A
C361       C362 1.540       .   A
C361       H366 1.140       .   S
C362       H367 1.140       .   S
C362       C363 1.540       .   A
O184       C187 1.250       .   A
O249       C259 1.250       .   A
O248       C258 1.250       .   A
O247       C257 1.250       .   A
O183       C188 1.250       .   A
O182       C189 1.251       .   A
O240      Cu242 1.951       .   S
C85         H89 1.140       .   S
C83         H88 1.140       .   S
C459       C464 1.540       .   A
C463       C464 1.540       .   A
C462       C463 1.540       .   A
C461       C462 1.540       .   A
C460       C461 1.540       .   A
C459       C460 1.540       .   A
C460        C50 1.610       .   S
C500        C68 1.603       .   S
C500       C501 1.540       .   A
C501       C502 1.540       .   A
C502       C503 1.540       .   A
C174       C503 1.605   1_554   S
C503       C504 1.540       .   A
C452       H457 1.140       .   S
C430       C431 1.540       .   A
C429       C430 1.540       .   A
C402       H407 1.140       .   S
C431       C432 1.540       .   A
C432       C433 1.540       .   A
C404       H408 1.140       .   S
C559       H565 1.140       .   S
O205       C215 1.250       .   A
C216       C583 1.641   1_554   S
O206       C216 1.250       .   A
O207       C217 1.250       .   A
C217       C323 1.651   1_554   S
O209       C218 1.250       .   A
O208       C218 1.250       .   A
C173       C603 1.613   1_455   S
C602       C603 1.540       .   A
C603       C604 1.540       .   A
C601       C602 1.540       .   A
C602       H607 1.140       .   S
C600       C601 1.540       .   A
C601       H606 1.140       .   S
C600       C102 1.610       .   S
C604       H608 1.140       .   S
C454       H458 1.140       .   S
Cu199     Cu200 2.630       .   S
C734       H738 1.140       .   S
C582       C583 1.540       .   A
C583       C584 1.540       .   A
C2           C3 1.540       .   A
C3           C4 1.540       .   A
C1           C2 1.540       .   A
C2           H7 1.140       .   S
C1           C6 1.540       .   A
C6           H9 1.140       .   S
C5           C6 1.540       .   A
C290         C5 1.590       .   S
C4           C5 1.540       .   A
C4           H8 1.140       .   S
C702       H707 1.140       .   S
C701       H706 1.140       .   S
C68         C69 1.540       .   A
C67         C68 1.540       .   A
C64         C69 1.540       .   A
C69         H72 1.140       .   S
C66         C67 1.540       .   A
C65         C66 1.540       .   A
C67         H71 1.140       .   S
C520        C64 1.655       .   S
C64         C65 1.540       .   A
C65         H70 1.140       .   S
C55         C60 1.540       .   A
C59         C60 1.540       .   A
C320       C321 1.540       .   A
C10        C320 1.648       .   S
C321       C322 1.540       .   A
C322       C323 1.540       .   A
C323       C324 1.540       .   A
C329       C330 1.540       .   A
C329       C334 1.540       .   A
C733       C734 1.540       .   A
C732       C733 1.540       .   A
C732       H737 1.140       .   S
C731       C732 1.540       .   A
C731       H736 1.140       .   S
C730       C731 1.540       .   A
C12         C13 1.540       .   A
C13         C14 1.540       .   A
C12        C330 1.598       .   S
C11         C12 1.540       .   A
C10         C11 1.540       .   A
C10         C15 1.540       .   A
C14         C15 1.540       .   A
C136       C137 1.540       .   A
C137       C138 1.540       .   A
C136       C141 1.540       .   A
C680       C136 1.629       .   S
C130       C131 1.540       .   A
C131       C132 1.540       .   A
C670       C131 1.617       .   S
C139       C140 1.540       .   A
C138       C139 1.540       .   A
C293       C138 1.589       .   S
C422       C423 1.540       .   A
C423       C424 1.540       .   A
C423       C257 1.613   1_565   S
C421       C422 1.540       .   A
C420       C421 1.540       .   A
C419       C420 1.540       .   A
C419       C424 1.540       .   A
C690       C140 1.641       .   S
C82         C83 1.540       .   A
C82         C87 1.540       .   A
C83         C84 1.540       .   A
C84         C85 1.540       .   A
C85         C86 1.540       .   A
C86         C87 1.540       .   A
C87         H90 1.140       .   S
C521       H526 1.140       .   S
C673       C258 1.621   1_554   S
C703       C259 1.615   1_565   S
C554       H558 1.140       .   S
C700       C149 1.610       .   S
C700       C701 1.540       .   A
C520       C521 1.540       .   A
C451       H456 1.140       .   S
C679       C680 1.540       .   A
C672       C673 1.540       .   A
C671       C672 1.540       .   A
C672       H677 1.140       .   S
C673       C674 1.540       .   A
C670       C671 1.540       .   A
C671       H676 1.140       .   S
C674       H678 1.140       .   S
C56         C57 1.540       .   A
C57         C58 1.540       .   A
C55         C56 1.540       .   A
C50         C51 1.540       .   A
C58         C59 1.540       .   A
C580       C581 1.540       .   A
C579       C580 1.540       .   A
C581       C582 1.540       .   A
C579       C584 1.540       .   A
C511       C512 1.540       .   A
C175       C443 1.624   1_455   S
C379       C384 1.540       .   A
C379       C380 1.540       .   A
O180       C190 1.250       .   A
O181       C190 1.250       .   A
C299       H305 1.140       .   S
C293       C294 1.540       .   A
C292       C293 1.540       .   A
C452       C453 1.540       .   A
C451       C452 1.540       .   A
C453       C454 1.540       .   A
C450       C451 1.540       .   A
C104       C105 1.540       .   A
C103       C104 1.540       .   A
C100       C105 1.540       .   A
C100       C101 1.540       .   A
C101       C102 1.540       .   A
C102       C103 1.540       .   A
C389       H395 1.140       .   S
C414       H418 1.140       .   S
C412       H417 1.140       .   S
C411       H416 1.140       .   S
C202       C413 1.618   1_545   S
O180      Cu185 1.951       .   S
Cu185     Cu186 2.630       .   S
O181      Cu186 1.951       .   S
O182      Cu186 1.951       .   S
O183      Cu186 1.951       .   S
O184      Cu186 1.951       .   S
C633       C634 1.540       .   A
C632       C633 1.540       .   A
C413       C414 1.540       .   A
C412       C413 1.540       .   A
C410       C411 1.540       .   A
C441       C442 1.540       .   A
C411       C412 1.540       .   A
C442       C443 1.540       .   A
Cu241     Cu242 2.630       .   S
C332       C333 1.540       .   A
C333       C334 1.540       .   A
C331       C332 1.540       .   A
C330       C331 1.540       .   A
C702       C703 1.540       .   A
C701       C702 1.540       .   A
C703       C704 1.540       .   A
C383       C384 1.540       .   A
C704       H708 1.140       .   S
C382       C383 1.540       .   A
C381       C382 1.540       .   A
C140       C141 1.540       .   A
C145       C146 1.540       .   A
C146       C147 1.540       .   A
C147       C148 1.540       .   A
C148       C149 1.540       .   A
C380       C381 1.540       .   A
