data_fog_v1-3c_B_Ch_v2-4c_Cu_1_Ch_1B_4H_Ch_1B_4H_Ch
_audit_creation_date              2019-09-04
_audit_creation_method            'tobacco_3.0'
_symmetry_space_group_name_H-M    'P1'
_symmetry_Int_Tables_number       1
_symmetry_cell_setting            triclinic
loop_
_symmetry_equiv_pos_as_xyz
  x,y,z
_cell_length_a                    37.968461182503326
_cell_length_b                    37.968957121616974
_cell_length_c                    41.751878538202284
_cell_angle_alpha                 90.00718311644123
_cell_angle_beta                  89.99561840814879
_cell_angle_gamma                 120.00984595051321
loop_
_atom_site_label
_atom_site_type_symbol
_atom_site_fract_x
_atom_site_fract_y
_atom_site_fract_z
C1         C    0.0250983298    0.3672705368    0.4749046104
C2         C    0.0000038810    0.3344442963    0.4999998838
C3         C   -0.0250944489    0.3421737595    0.5250952734
C4         C   -0.0250983298    0.3827294632    0.5250953896
C5         C   -0.0000038810    0.4155557037    0.5000001162
C6         C    0.0250944489    0.4078262405    0.4749047266
H7         H    0.0000049702    0.3044173249    0.5000015818
H8         H   -0.0436776130    0.3884512736    0.5436724961
H9         H    0.0436726428    0.4321314015    0.4563259221
C10        C    0.6415646544    0.6755014237    0.8584313512
C11        C    0.6415627343    0.7160581078    0.8584291137
C12        C    0.6666577334    0.7488855619    0.8333323967
C13        C    0.6917546527    0.7411563320    0.8082379173
C14        C    0.6917565729    0.7005996479    0.8082401548
C15        C    0.6666615738    0.6677721938    0.8333368718
H16        H    0.6229827110    0.7217831781    0.8770073303
H17        H    0.7103314703    0.7654571747    0.7896598281
H18        H    0.6666647795    0.6377462807    0.8333367443
C19        C    0.3082331782    0.0088337296    0.1917691096
C20        C    0.3333288258    0.0011035862    0.1666740269
C21        C    0.3584246933    0.0339311973    0.1415776630
C22        C    0.3584249132    0.0744889520    0.1415763819
C23        C    0.3333292656    0.0822190955    0.1666714646
C24        C    0.3082333981    0.0493914843    0.1917678284
H25        H    0.3333304470   -0.0289231195    0.1666731913
H26        H    0.3770023735    0.0987899109    0.1229985541
H27        H    0.2896543165    0.0551172310    0.2103464917
C28        C    0.6283360902    0.6490388448    0.4749004952
C29        C    0.6611638679    0.6567748401    0.4999936216
C30        C    0.6534277850    0.6239468026    0.5250866953
C31        C    0.6128639246    0.5833827697    0.5250866427
C32        C    0.5800361469    0.5756467743    0.4999935163
C33        C    0.5877722298    0.6084748119    0.4749004426
H34        H    0.6911968781    0.6868061942    0.4999954444
H35        H    0.6071372139    0.5590814952    0.5436620349
H36        H    0.5634659303    0.6027447323    0.4563232275
C37        C    0.2949943192    0.9823681341    0.8082357378
C38        C    0.2544305553    0.9418040048    0.8082370091
C39        C    0.2466963485    0.9089762517    0.8333298174
C40        C    0.2795259057    0.9167126279    0.8584213543
C41        C    0.3200896696    0.9572767572    0.8584200830
C42        C    0.3278238763    0.9901045103    0.8333272748
H43        H    0.2301229383    0.9360736433    0.7896609709
H44        H    0.2738005838    0.8924115640    0.8769965500
H45        H    0.3578568151    1.0201359357    0.8333281173
C46        C    0.9616630839    0.3156963161    0.1415659542
C47        C    0.9211001663    0.2751313405    0.1415658807
C48        C    0.9133657352    0.2423033707    0.1666585463
C49        C    0.9461942216    0.2500403766    0.1917512855
C50        C    0.9867571392    0.2906053522    0.1917513590
C51        C    0.9944915703    0.3234333220    0.1666586933
H52        H    0.8967933421    0.2694005128    0.1229889523
H53        H    0.9404687336    0.2257391522    0.2103263756
H54        H    1.0245238825    0.3534653741    0.1666605316
C55        C    0.3716604504    1.0206945353    0.5250884516
C56        C    0.3388336849    0.9955974743    0.4999915074
C57        C    0.3465655911    0.9705014071    0.4748950642
C58        C    0.3871242627    0.9705024008    0.4748955652
C59        C    0.4199510281    0.9955994618    0.4999925094
C60        C    0.4122191220    1.0206955290    0.5250889526
H61        H    0.3088045163    0.9955949545    0.4999893523
H62        H    0.3928478815    0.9519247926    0.4563176786
H63        H    0.4365246718    1.0392756570    0.5436689942
C64        C    0.0383322211    0.3540370043    0.8584125058
C65        C    0.0055055007    0.3289415030    0.8333150857
C66        C    0.0132358594    0.3038438121    0.8082191579
C67        C    0.0537929387    0.3038416225    0.8082206503
C68        C    0.0866196592    0.3289371238    0.8333180704
C69        C    0.0788893004    0.3540348147    0.8584139981
H70        H   -0.0245224891    0.3289413400    0.8333121967
H71        H    0.0595154121    0.2852628123    0.7896431453
H72        H    0.1031948168    0.3726137878    0.8769943921
C73        C    0.7049990565    0.6873666601    0.1917489176
C74        C    0.7455559603    0.6873641197    0.1917499155
C75        C    0.7532854424    0.6622657411    0.1666540581
C76        C    0.7204580206    0.6371699029    0.1415572029
C77        C    0.6799011167    0.6371724433    0.1415562050
C78        C    0.6721716347    0.6622708220    0.1666520624
H79        H    0.7698619959    0.7059433422    0.2103298912
H80        H    0.7261798450    0.6185905836    0.1229797501
H81        H    0.6421437747    0.6622709187    0.1666495395
C82        C    0.6282991913    0.9704875774    0.4748951382
C83        C    0.5877411859    0.9704879157    0.4748950241
C84        C    0.5800103591    0.9955843267    0.4999918606
C85        C    0.6128375376    1.0206803994    0.5250888113
C86        C    0.6533955430    1.0206800611    0.5250889255
C87        C    0.6611263699    0.9955836501    0.4999920890
H88        H    0.5634353303    0.9519085194    0.4563149777
H89        H    0.6071147178    1.0392582620    0.5436669890
H90        H    0.6911550454    0.9955851837    0.4999939576
C91        C    0.2949569641    0.3038007701    0.8082393877
C92        C    0.2544002797    0.3038037492    0.8082389655
C93        C    0.2466715421    0.3289023483    0.8333351100
C94        C    0.2794994890    0.3539979683    0.8584316767
C95        C    0.3200561735    0.3539949891    0.8584320989
C96        C    0.3277849111    0.3288963900    0.8333359544
H97        H    0.2300938553    0.2852246882    0.7896592034
H98        H    0.2737782157    0.3725774507    0.8770093421
H99        H    0.3578126087    0.3288959686    0.8333380510
C100       C    0.9616277752    0.6371380873    0.1415693461
C101       C    0.9210704394    0.6371397643    0.1415685548
C102       C    0.9133400634    0.6622368476    0.1666650508
C103       C    0.9461670231    0.6873322541    0.1917623382
C104       C    0.9867243588    0.6873305771    0.1917631295
C105       C    0.9944547349    0.6622334937    0.1666666335
H106       H    0.8967647459    0.6185608613    0.1229882591
H107       H    0.9404445369    0.7059106145    0.2103402638
H108       H    1.0244829146    0.6622340362    0.1666690035
C109       C    0.3716420243    0.3421507672    0.5250878699
C110       C    0.3388152946    0.3344167810    0.4999943186
C111       C    0.3465531125    0.3672461406    0.4749020101
C112       C    0.3871176602    0.4078094864    0.4749032529
C113       C    0.4199443899    0.4155434726    0.4999968042
C114       C    0.4122065720    0.3827141130    0.5250891127
H115       H    0.3087817758    0.3043859357    0.4999916146
H116       H    0.3928456553    0.4321117396    0.4563284271
H117       H    0.4365120958    0.3884427051    0.5436666424
C118       C    0.0382959710    0.6754767697    0.8584276277
C119       C    0.0054677344    0.6677413737    0.8333351109
C120       C    0.0132031976    0.7005701713    0.8082429399
C121       C    0.0537668974    0.7411343649    0.8082432857
C122       C    0.0865951340    0.7488697609    0.8333358025
C123       C    0.0788596708    0.7160409633    0.8584279735
H124       H   -0.0245651568    0.6377099007    0.8333330711
H125       H    0.0594931493    0.7654362020    0.7896685618
H126       H    0.1031663101    0.7217705992    0.8770047372
C127       C    0.7049766636    0.0088091179    0.1917449086
C128       C    0.7455401421    0.0493735327    0.1917447113
C129       C    0.7532750267    0.0822016851    0.1666520901
C130       C    0.7204464329    0.0744654226    0.1415596662
C131       C    0.6798829544    0.0339010078    0.1415598636
C132       C    0.6721480698    0.0010728554    0.1666524848
H133       H    0.7698470458    0.0551038100    0.2103214062
H134       H    0.7261722566    0.0987667821    0.1229846089
H135       H    0.6421153423   -0.0289587815    0.1666508471
C136       C    0.9748646252    0.6239062568    0.5250798390
C137       C    0.9748669121    0.5833497558    0.5250802672
C138       C    0.9999635218    0.5756182853    0.4999845774
C139       C    1.0250578447    0.6084433158    0.4748884595
C140       C    1.0250555578    0.6489998168    0.4748880313
C141       C    0.9999589481    0.6567312873    0.4999837211
H142       H    0.9562888113    0.5590454906    0.5436596970
H143       H    1.0436358545    0.6027200195    0.4563111307
H144       H    0.9999590390    0.6867588489    0.4999816200
C145       C    0.6917223707    0.9823326693    0.8082141599
C146       C    0.6917229246    0.9417753018    0.8082159631
C147       C    0.6666274644    0.9089479259    0.8333126005
C148       C    0.6415314502    0.9166779175    0.8584074348
C149       C    0.6415308963    0.9572352850    0.8584056317
C150       C    0.6666263565    0.9900626609    0.8333089942
H151       H    0.7103022776    0.9360496675    0.7896374837
H152       H    0.6229542913    0.8923771327    0.8769854652
H153       H    0.6666241623    1.0200890800    0.8333094433
C154       C    0.3584041337    0.3156697435    0.1415564757
C155       C    0.3584039912    0.2751120278    0.1415589971
C156       C    0.3333088114    0.2422856528    0.1666563834
C157       C    0.3082137741    0.2500169934    0.1917512485
C158       C    0.3082139166    0.2905747091    0.1917487271
C159       C    0.3333090964    0.3234010842    0.1666513408
H160       H    0.3769826210    0.2693853947    0.1229804950
H161       H    0.2896368228    0.2257169496    0.2103298332
H162       H    0.3333074179    0.3534277611    0.1666512581
O163       O    0.9580652929    0.4384889906    1.0264328617
O164       O    0.9758096671    0.5196265825    0.9622206707
O165       O    0.9758182631    0.4473665323    0.9622138506
O166       O    0.9580566897    0.5107543048    1.0264396797
O167       O    1.0241452969    0.5438136826    1.0377671720
O168       O    1.0419054688    0.4804252106    0.9735460043
O169       O    1.0418982743    0.5526859603    0.9735481630
O170       O    1.0241539001    0.4715483684    1.0377603540
Cu171     Cu    0.9609070620    0.4760428536    0.9932910345
Cu172     Cu    1.0390565052    0.5151320973    1.0066899903
C173       C    0.9884942234    0.4430552300    1.0415642519
C174       C    1.0114693438    0.5481197210    0.9584167728
C175       C    1.0114771566    0.4545471163    0.9584131298
C176       C    0.9884864106    0.5366278347    1.0415678950
O177       O    0.6247437453    0.7718315845    0.3597656493
O178       O    0.6424895751    0.8529667623    0.2955507835
O179       O    0.6424968632    0.7807060579    0.2955466633
O180       O    0.6247364501    0.8440975528    0.3597697672
O181       O    0.6908250314    0.8771565325    0.3710973535
O182       O    0.7085840429    0.8137643383    0.3068789110
O183       O    0.7085781563    0.8860257420    0.3068783698
O184       O    0.6908323266    0.8048905641    0.3710932357
Cu185     Cu    0.6275862446    0.8093842767    0.3266224760
Cu186     Cu    0.7057356570    0.8484730498    0.3400215432
C187       C    0.6551724481    0.7763979807    0.3748974809
C188       C    0.6781494535    0.8814593458    0.2917465382
C189       C    0.6781555726    0.7878858943    0.2917463913
C190       C    0.6551663290    0.8699714322    0.3748976279
O191       O    0.2913739597    0.1051458551    0.6930995347
O192       O    0.3091212965    0.1862834680    0.6288864917
O193       O    0.3091282883    0.1140226152    0.6288807563
O194       O    0.2913669609    0.1774119718    0.6931052679
O195       O    0.3574553286    0.2104703353    0.7044336269
O196       O    0.3752152543    0.1470802793    0.6402137767
O197       O    0.3752096642    0.2193418314    0.6402148508
O198       O    0.3574623274    0.1382042186    0.7044278938
Cu199     Cu    0.2942172320    0.1426998211    0.6599572023
Cu200     Cu    0.3723663919    0.1817878654    0.6733571831
C201       C    0.3218023335    0.1097115842    0.7082314839
C202       C    0.3447812904    0.2147761023    0.6250829016
C203       C    0.3447870256    0.1212024586    0.6250806631
C204       C    0.3217965983    0.2032852280    0.7082337224
O205       O    0.4759254113    0.4473641635    0.9622153354
O206       O    0.5570798005    0.5107704343    1.0264304397
O207       O    0.4848039806    0.4384950990    1.0264329373
O208       O    0.5482065031    0.5196447633    0.9622128378
O209       O    0.5151674337    0.5526839519    0.9735475210
O210       O    0.4517643195    0.4715348814    1.0377629223
O211       O    0.5240407310    0.5438096228    1.0377651229
O212       O    0.4428863418    0.4804033520    0.9735500186
Cu213     Cu    0.5195195504    0.4760536474    0.9932905608
Cu214     Cu    0.4804465919    0.5151201388    1.0066898975
C215       C    0.4474390792    0.4545346274    0.9584149020
C216       C    0.5525270631    0.5366391589    1.0415655563
C217       C    0.4589358371    0.4430482809    1.0415629854
C218       C    0.5410303052    0.5481255053    0.9584174729
O219       O    0.2237422328    0.8440972478    0.3597671542
O220       O    0.1425881818    0.7806940164    0.2955509418
O221       O    0.2148633554    0.8529699981    0.2955502374
O222       O    0.1514617942    0.7718159944    0.3597678560
O223       O    0.1184225669    0.8048548582    0.3711031433
O224       O    0.1818248277    0.8860081599    0.3068901858
O225       O    0.1095489545    0.8137328801    0.3068862290
O226       O    0.1907030055    0.8771361115    0.3711024415
Cu227     Cu    0.1861783011    0.8093792676    0.3266226048
Cu228     Cu    0.1471128863    0.8484508603    0.3400307784
C229       C    0.2191884959    0.8699662326    0.3749030350
C230       C    0.1141026914    0.7878638952    0.2917503482
C231       C    0.2076948792    0.8814538114    0.2917546241
C232       C    0.1255963081    0.7763763164    0.3748987591
O233       O    0.8904139959    0.1774347612    0.6930955899
O234       O    0.8092596983    0.1140328154    0.6288791568
O235       O    0.8815351459    0.1863085233    0.6288788419
O236       O    0.8181332834    0.1051537818    0.6930959022
O237       O    0.7850944448    0.1381928606    0.7044318177
O238       O    0.8484970069    0.2193469002    0.6402194186
O239       O    0.7762208598    0.1470718943    0.6402150724
O240       O    0.8573751574    0.2104738401    0.7044315054
Cu241     Cu    0.8528499054    0.1427174043    0.6599508728
Cu242     Cu    0.8137849503    0.1817892512    0.6733597894
C243       C    0.8858604897    0.2033036641    0.7082318173
C244       C    0.7807743660    0.1212029914    0.6250788449
C245       C    0.8743669084    0.2147925529    0.6250836251
C246       C    0.7922679473    0.1097141026    0.7082270371
O247       O    0.5482051915    1.0197513187    0.9622201730
O248       O    0.4848165052    1.0375035997    1.0264419181
O249       O    0.5570786989    1.0374974028    1.0264415083
O250       O    0.4759377342    1.0197575234    0.9622205831
O251       O    0.4428786458    0.9536691429    0.9735413653
O252       O    0.5240190164    0.9714078370    1.0377575920
O253       O    0.4517574168    0.9714152192    1.0377627003
O254       O    0.5151461032    0.9536629382    0.9735409552
Cu255     Cu    0.5195263162    1.0346589791    0.9932999876
Cu256     Cu    0.4804362921    0.9565075589    1.0066828857
C257       C    0.5410221846    0.9840888475    0.9584118098
C258       C    0.4589404237    1.0070776904    1.0415710635
C259       C    0.5525142846    1.0070699459    1.0415647278
C260       C    0.4474483238    0.9840965921    0.9584181455
O261       O    0.1514975387    0.3708609151    0.3597708688
O262       O    0.2148872638    0.3531056480    0.2955519921
O263       O    0.1426230831    0.3531078722    0.2955507257
O264       O    0.2237669901    0.3708586972    0.3597721328
O265       O    0.1907096679    0.3047710064    0.3710954106
O266       O    0.1095664630    0.2870215830    0.3068786649
O267       O    0.1818299416    0.2870179571    0.3068752699
O268       O    0.1184402165    0.3047732243    0.3710941466
Cu269     Cu    0.1862104498    0.3680136157    0.3266260832
Cu270     Cu    0.1471170305    0.2898652566    0.3400200556
C271       C    0.1256213159    0.3404340491    0.3749011375
C272       C    0.2077061644    0.3174448232    0.2917450012
C273       C    0.1141315303    0.3174510218    0.2917485499
C274       C    0.2191959500    0.3404278504    0.3748975889
O275       O    0.8815414421    0.6864280385    0.6288922893
O276       O    0.8181499882    0.7041799052    0.6931117225
O277       O    0.8904121160    0.7041735771    0.6931137180
O278       O    0.8092740507    0.6864343744    0.6288902939
O279       O    0.7762143684    0.6203458977    0.6402107277
O280       O    0.8573518398    0.6380839151    0.7044294534
O281       O    0.7850903059    0.6380914285    0.7044321564
O282       O    0.8484817598    0.6203395618    0.6402127231
Cu283     Cu    0.8528612371    0.7013355005    0.6599709796
Cu284     Cu    0.8137705109    0.6231839666    0.6733534660
C285       C    0.8743585463    0.6507655803    0.6250840928
C286       C    0.7922732017    0.6737538868    0.7082403529
C287       C    0.8858469775    0.6737459723    0.7082371318
C288       C    0.7807847705    0.6507734947    0.6250873138
C729       C    0.3008237240    0.3119964616    0.2502012342
C730       C    0.2834319724    0.2972000057    0.2164045575
C731       C    0.2405682889    0.2892133103    0.2079501875
C732       C    0.2150963570    0.2960230707    0.2332924942
C733       C    0.2324881086    0.3108195266    0.2670891709
C734       C    0.2753517921    0.3188062220    0.2755435409
H735       H    0.3325539833    0.3179086906    0.2564596639
H736       H    0.2276936196    0.2782607735    0.1829337399
H737       H    0.1833660978    0.2901108417    0.2270340644
H738       H    0.2882264614    0.3297587588    0.3005599884
C719       C    0.4252288716    0.3537889832    0.1071358445
C720       C    0.3831924979    0.3470778016    0.1169008201
C721       C    0.3666336118    0.3726478307    0.1013247062
C722       C    0.3921110993    0.4049290413    0.0759836166
C723       C    0.4341474729    0.4116402229    0.0662186410
C724       C    0.4507063591    0.3860701938    0.0817947549
H725       H    0.4374867484    0.3348605201    0.1186662146
H726       H    0.3355179133    0.3676810471    0.1085522135
H727       H    0.3798532225    0.4238575044    0.0644532465
H728       H    0.4818220575    0.3910369773    0.0745672476
C709       C    0.7397289360    1.0591107022    0.7927192438
C710       C    0.7165141200    1.0137413963    0.7835601098
C711       C    0.7187803429    1.0006540800    0.7490614646
C712       C    0.7442613819    1.0329360697    0.7237219533
C713       C    0.7674761979    1.0783053757    0.7328810872
C714       C    0.7652099750    1.0913926919    0.7673797325
H715       H    0.7380513424    1.0687987156    0.8182572019
H716       H    0.7015968903    0.9670714668    0.7422808144
H717       H    0.7459389755    1.0232480564    0.6981839951
H718       H    0.7823934276    1.1249753051    0.7741603827
C699       C    0.5652800521    0.9896456694    0.8986501514
C700       C    0.5658043956    0.9774676239    0.9337535074
C701       C    0.5918008839    0.9584840208    0.9435120767
C702       C    0.6172730287    0.9516784631    0.9181672901
C703       C    0.6167486852    0.9638565086    0.8830639341
C704       C    0.5907521969    0.9828401117    0.8733053647
H705       H    0.5460358984    1.0036984665    0.8914262754
H706       H    0.5921898238    0.9494692740    0.9694957649
H707       H    0.6365171824    0.9376256660    0.9253911661
H708       H    0.5903632570    0.9918548585    0.8473216766
C689       C    0.9572763579    0.6270077753    0.5856046040
C690       C    0.9500831512    0.6305288774    0.5497375795
C691       C    0.9174183790    0.6408570206    0.5392149414
C692       C    0.8919468135    0.6476640618    0.5645593278
C693       C    0.8991400202    0.6441429597    0.6004263523
C694       C    0.9318047924    0.6338148165    0.6109489904
H695       H    0.9814567737    0.6193622667    0.5933940893
H696       H    0.9120929593    0.6434636547    0.5126659643
H697       H    0.8677663978    0.6553095704    0.5567698424
H698       H    0.9371302122    0.6312081824    0.6374979674
C679       C    1.0316637025    0.7030670576    0.4323033519
C680       C    1.0498458204    0.6804069514    0.4502337463
C681       C    1.0935080509    0.6900279605    0.4428237896
C682       C    1.1189881634    0.7223090757    0.4174834385
C683       C    1.1008060455    0.7449691819    0.3995530441
C684       C    1.0571438151    0.7353481728    0.4069630008
H685       H    0.9993423112    0.6959450119    0.4377886445
H686       H    1.1069677717    0.6732553349    0.4560955693
H687       H    1.1513095548    0.7294311214    0.4119981459
H688       H    1.0436840942    0.7521207984    0.3936912211
C669       C    0.6593296294    0.0576383945    0.0890908644
C670       C    0.6484764447    0.0272850165    0.1169031077
C671       C    0.6053454348   -0.0098679012    0.1193745389
C672       C    0.5730676096   -0.0166674409    0.0940337269
C673       C    0.5839207943    0.0136859371    0.0662214837
C674       C    0.6270518042    0.0508388548    0.0637500524
H675       H    0.6912577796    0.0851412037    0.0872613633
H676       H    0.5973105811   -0.0323365395    0.1399611408
H677       H    0.5411394594   -0.0441702501    0.0958632280
H678       H    0.6350866579    0.0733074931    0.0431634506
C659       C    0.6572411731   -0.0624799433    0.2181986572
C660       C    0.6983616738   -0.0225924869    0.2164030733
C661       C    0.7326835592   -0.0149783117    0.2399501395
C662       C    0.7258849440   -0.0472515930    0.2652927896
C663       C    0.6847644433   -0.0871390495    0.2670883736
C664       C    0.6504425579   -0.0947532246    0.2435413074
H665       H    0.6318340631   -0.0681164107    0.2007677122
H666       H    0.7631218939    0.0145464827    0.2386217998
H667       H    0.7512920540   -0.0416151257    0.2827237347
H668       H    0.6200042232   -0.1242780191    0.2448696471
C649       C   -0.0085846430    0.7262380080    0.7575292198
C650       C   -0.0182003998    0.6939558391    0.7835834287
C651       C   -0.0600906692    0.6548759028    0.7842942448
C652       C   -0.0923651818    0.6480781355    0.7589508519
C653       C   -0.0827494251    0.6803603045    0.7328966430
C654       C   -0.0408591557    0.7194402407    0.7321858270
H655       H    0.0224250369    0.7551673115    0.7570030313
H656       H   -0.0672095439    0.6309795193    0.8035795001
H657       H   -0.1233748618    0.6191488321    0.7594770404
H658       H   -0.0337402810    0.7433366242    0.7129005717
C639       C    0.0223759655    0.6013945891    0.8725417080
C640       C    0.0316812998    0.6440742011    0.8830820620
C641       C    0.0341879918    0.6544778574    0.9189625542
C642       C    0.0273893494    0.6222019016    0.9443026925
C643       C    0.0180840150    0.5795222896    0.9337623385
C644       C    0.0155773231    0.5691186333    0.8978818463
H645       H    0.0205203624    0.5936931813    0.8459808242
H646       H    0.0410758465    0.6860694837    0.9267656222
H647       H    0.0292449525    0.6299033094    0.9708635763
H648       H    0.0086894683    0.5375270070    0.8900787783
C629       C    0.2776433224    0.3638267274    0.4597162485
C630       C    0.3151490841    0.3606332236    0.4502426849
C631       C    0.3203802930    0.3506434916    0.4154262359
C632       C    0.2881057401    0.3438472636    0.3900833505
C633       C    0.2505999784    0.3470407674    0.3995569141
C634       C    0.2453687696    0.3570304994    0.4343733631
H635       H    0.2737708691    0.3712217238    0.4854894640
H636       H    0.3481420900    0.3482793553    0.4084128360
H637       H    0.2919781934    0.3364522672    0.3643101350
H638       H    0.2176069725    0.3593946357    0.4413867630
C619       C    0.3310026610    0.2663185714    0.5450923269
C620       C    0.3650185549    0.3107420128    0.5497452018
C621       C    0.3922275513    0.3228868762    0.5797382606
C622       C    0.3854206537    0.2906082982    0.6050784445
C623       C    0.3514047598    0.2461848567    0.6004255697
C624       C    0.3241957634    0.2340399933    0.5704325109
H625       H    0.3108609364    0.2573282180    0.5228896730
H626       H    0.4174068562    0.3557693340    0.5831832512
H627       H    0.4055623783    0.2995986516    0.6272810984
H628       H    0.2990164585    0.2011575355    0.5669875202
C609       C    1.0435324792    0.6954559516    0.2321329126
C610       C    1.0181298205    0.7121173301    0.2164152403
C611       C    1.0250108665    0.7542586147    0.2260390665
C612       C    1.0572945711    0.7797385208    0.2513805651
C613       C    1.0826972298    0.7630771422    0.2670982375
C614       C    1.0758161838    0.7209358576    0.2574744112
H615       H    1.0384387179    0.6642604552    0.2250087815
H616       H    1.0062081265    0.7665926415    0.2144052059
H617       H    1.0623883324    0.8109340172    0.2585046962
H618       H    1.0946189237    0.7086018308    0.2691082719
C599       C    0.9524153967    0.6096421341    0.0825242819
C600       C    0.9682501757    0.6123557731    0.1169124845
C601       C    0.9908918719    0.5895965999    0.1259568232
C602       C    0.9976987891    0.5641237878    0.1006129592
C603       C    0.9818640102    0.5614101489    0.0662247565
C604       C    0.9592223140    0.5841693220    0.0571804179
H605       H    0.9356546606    0.6264898338    0.0758291221
H606       H    1.0026134355    0.5916045056    0.1514111348
H607       H    1.0144595253    0.5472760882    0.1073081189
H608       H    0.9475007503    0.5821614164    0.0317261062
C589       C    0.3018121370    0.2400925323    0.7935661903
C590       C    0.3015745858    0.2790175028    0.7835818365
C591       C    0.3081392300    0.2924679695    0.7482522012
C592       C    0.3149414254    0.2669934657    0.7229069198
C593       C    0.3151789767    0.2280684952    0.7328912736
C594       C    0.3086143325    0.2146180285    0.7682209089
H595       H    0.2969525952    0.2301356933    0.8197192970
H596       H    0.3079636031    0.3212805200    0.7408606998
H597       H    0.3198009672    0.2769503047    0.6967538131
H598       H    0.3087899593    0.1858054780    0.7756124103
C579       C    0.3545103078    0.3585842412    0.9141367717
C580       C    0.3514628275    0.3787833516    0.8830831719
C581       C    0.3807001461    0.4244639187    0.8773699006
C582       C    0.4129849449    0.4499453754    0.9027102292
C583       C    0.4160324252    0.4297462650    0.9337638290
C584       C    0.3867951066    0.3840656979    0.9394771003
H585       H    0.3328670979    0.3247687564    0.9183660764
H586       H    0.3784453373    0.4394166741    0.8543839556
H587       H    0.4346281547    0.4837608601    0.8984809245
H588       H    0.3890499154    0.3691129425    0.9624630453
C569       C    0.6326318453    0.9054531139    0.4598617791
C570       C    0.6349239143    0.9457029643    0.4502384067
C571       C    0.6440248292    0.9604793552    0.4152730107
C572       C    0.6508336751    0.9350058957    0.3899309870
C573       C    0.6485416061    0.8947560453    0.3995543594
C574       C    0.6394406912    0.8799796544    0.4345197554
H575       H    0.6258948044    0.8945147466    0.4857452541
H576       H    0.6457216985    0.9902726190    0.4081487181
H577       H    0.6575707160    0.9459442630    0.3640475120
H578       H    0.6377438219    0.8501863906    0.4416440480
C559       C    0.7174563048    1.0896966833    0.5422954993
C560       C    0.6848011029    1.0454642350    0.5497416843
C561       C    0.6844297525    1.0267090779    0.5825300702
C562       C    0.7167136042    1.0521863691    0.6078722711
C563       C    0.7493688061    1.0964188174    0.6004260861
C564       C    0.7497401565    1.1151739746    0.5676377002
H565       H    0.7177312005    1.1035803711    0.5180235772
H566       H    0.6602584764    0.9939677833    0.5880427476
H567       H    0.7164387085    1.0383026814    0.6321441932
H568       H    0.7739114326    1.1479152692    0.5621250229
C549       C    0.6550105845    0.6990283889    0.2279546954
C550       C    0.6983805581    0.7121505662    0.2164041790
C551       C    0.7349472882    0.7507484545    0.2301971381
C552       C    0.7281440446    0.7762241655    0.2555406135
C553       C    0.6847740709    0.7631019882    0.2670911299
C554       C    0.6482073409    0.7245040999    0.2532981708
H555       H    0.6279417064    0.6704559262    0.2177443231
H556       H    0.7670507458    0.7604626650    0.2216479235
H557       H    0.7552129227    0.8047966282    0.2657509858
H558       H    0.6161038833    0.7147898894    0.2618473855
C539       C    0.6055572872    0.5795732431    0.1274318083
C540       C    0.6484966048    0.6123856155    0.1169031659
C541       C    0.6591534075    0.6197181736    0.0810322383
C542       C    0.6268708927    0.5942383592    0.0556899530
C543       C    0.5839315751    0.5614259867    0.0662185954
C544       C    0.5732747723    0.5540934287    0.1020895231
H545       H    0.5976684851    0.5741452455    0.1539856119
H546       H    0.6909372751    0.6440060071    0.0732378394
H547       H    0.6347596947    0.5996663567    0.0291361494
H548       H    0.5414909048    0.5298055951    0.1098839220
C529       C    0.7948822023    0.6259755635    0.1809435485
C530       C    0.7927559600    0.6622586158    0.1666567690
C531       C    0.8311865106    0.6985343466    0.1523727749
C532       C    0.8717433035    0.6985270252    0.1523755604
C533       C    0.8738695457    0.6622439729    0.1666623399
C534       C    0.8354389951    0.6259682421    0.1809463340
H535       H    0.7664336128    0.5991221004    0.1915174143
H536       H    0.8296138899    0.7253920810    0.1417972994
H537       H    0.9001918929    0.7253804883    0.1418016947
H538       H    0.8370116158    0.5991105077    0.1915218095
C519       C   -0.0441123430    0.2676492737    0.7230527170
C520       C   -0.0827347315    0.2280921386    0.7328839955
C521       C   -0.0890742140    0.2140166030    0.7680567661
C522       C   -0.0567913078    0.2394982025    0.7933982582
C523       C   -0.0181689193    0.2790553376    0.7835669798
C524       C   -0.0118294369    0.2931308732    0.7483942092
H525       H   -0.0394194794    0.2780688260    0.6970157310
H526       H   -0.1176625693    0.1847361067    0.7753349566
H527       H   -0.0614841715    0.2290786502    0.8194352443
H528       H    0.0167589185    0.3224113695    0.7411160186
C509       C    0.1320208785    0.3002384367    0.8107372495
C510       C    0.1260895538    0.3289285479    0.8333222725
C511       C    0.1607142760    0.3576098472    0.8559116132
C512       C    0.2012703228    0.3576010353    0.8559159309
C513       C    0.2072016475    0.3289109241    0.8333309079
C514       C    0.1725769253    0.3002296249    0.8107415672
H515       H    0.1063895906    0.2790068256    0.7940152700
H516       H    0.1563250263    0.3788470732    0.8726296818
H517       H    0.2269016107    0.3788326465    0.8726379104
H518       H    0.1769661750    0.2789923989    0.7940234986
C499       C   -0.0042642838    0.3865342347    0.8796977165
C500       C    0.0317108052    0.3788188946    0.8830687761
C501       C    0.0608797778    0.3965767202    0.9117838774
C502       C    0.0540736615    0.4220498859    0.9371279191
C503       C    0.0180985726    0.4297652260    0.9337568595
C504       C   -0.0110704000    0.4120074004    0.9050417582
H505       H   -0.0258568999    0.3733888313    0.8584410830
H506       H    0.0875093338    0.3908664148    0.9142800325
H507       H    0.0756662776    0.4351952893    0.9583845525
H508       H   -0.0376999561    0.4177177057    0.9025456031
C489       C    0.3158436257    1.0664389723    0.5791411682
C490       C    0.3514130083    1.0964209592    0.6004263190
C491       C    0.3937931206    1.1009304838    0.5963697081
C492       C    0.4006038503    1.0754580215    0.5710279465
C493       C    0.3650344677    1.0454760347    0.5497427957
C494       C    0.3226543554    1.0409665101    0.5537994066
H495       H    0.2844713348    1.0631007528    0.5821441139
H496       H    0.4201227924    1.1231231866    0.6121247727
H497       H    0.4319761412    1.0787962410    0.5680250008
H498       H    0.2963246836    1.0187738073    0.5380443420
C479       C    0.4795879016    0.9953608582    0.4680496776
C480       C    0.4594221564    0.9955957294    0.4999923494
C481       C    0.4798149484    0.9958267654    0.5319348568
C482       C    0.5203734856    0.9958229302    0.5319346924
C483       C    0.5405392308    0.9955880590    0.4999920206
C484       C    0.5201464388    0.9953570230    0.4680495132
H485       H    0.4644919387    0.9951898316    0.4444039253
H486       H    0.4648889808    0.9960006235    0.5555797199
H487       H    0.5354694485    0.9959939569    0.5555804447
H488       H    0.5350724063    0.9951831649    0.4444046501
C469       C    0.3153380477    0.9091659567    0.4344119027
C470       C    0.3151597355    0.9457136447    0.4502412187
C471       C    0.2826987313    0.9567815079    0.4407283656
C472       C    0.2504160393    0.9313016830    0.4153861965
C473       C    0.2505943515    0.8947539950    0.3995568805
C474       C    0.2830553557    0.8836861318    0.4090697336
H475       H    0.3393676222    0.9009728632    0.4414538848
H476       H    0.2825657180    0.9838343269    0.4524448680
H477       H    0.2263864647    0.9394947765    0.4083442143
H478       H    0.2831883690    0.8566333128    0.3973532312
C459       C    0.8738838692    0.1622595474    0.1666625814
C460       C    0.8738852180    0.2028201465    0.1666569541
C461       C    0.8333217297    0.2028131269    0.1666496909
C462       C    0.7927568926    0.1622455084    0.1666480550
C463       C    0.7927555438    0.1216849093    0.1666536823
C464       C    0.8333190321    0.1216919288    0.1666609455
H465       H    0.9039113866    0.1622647437    0.1666679580
H466       H    0.8333214444    0.2328359380    0.1666455254
H467       H    0.7627293753    0.1622403121    0.1666426784
H468       H    0.8333193175    0.0916691178    0.1666651110
C449       C    1.0599072297    0.3037689084    0.2059116716
C450       C    1.0181655155    0.2972250415    0.2164089795
C451       C    1.0087026205    0.2974843202    0.2522472623
C452       C    1.0409814398    0.3042874657    0.2775882372
C453       C    1.0827231540    0.3108313325    0.2670909294
C454       C    1.0921860490    0.3105720539    0.2312526466
H455       H    1.0669122299    0.3035769748    0.1793820337
H456       H    0.9778052525    0.2926405814    0.2600184664
H457       H    1.0339764396    0.3044793992    0.3041178751
H458       H    1.1230834170    0.3154157927    0.2234814424
C439       C    0.9315527841    0.3473322577    0.1014826807
C440       C    0.9682792830    0.3471013160    0.1169068757
C441       C    1.0118051525    0.3791448314    0.1069892981
C442       C    1.0186045232    0.4114192884    0.0816475254
C443       C    0.9818780243    0.4116502301    0.0662233304
C444       C    0.9383521547    0.3796067147    0.0761409081
H445       H    0.8993323352    0.3236117334    0.1088242642
H446       H    1.0389913540    0.3789749033    0.1184059185
H447       H    1.0508249721    0.4351398127    0.0743059419
H448       H    0.9111659532    0.3797766429    0.0647242876
C429       C    0.2072085054    0.8289285867    0.8333500642
C430       C    0.2072113006    0.8694899025    0.8333312935
C431       C    0.1666485364    0.8694843221    0.8333140392
C432       C    0.1260829770    0.8289174259    0.8333155557
C433       C    0.1260801819    0.7883561101    0.8333343264
C434       C    0.1666429461    0.7883616905    0.8333515807
H435       H    0.2372354867    0.8289327177    0.8333628368
H436       H    0.1666493216    0.8995076637    0.8333001446
H437       H    0.0960559957    0.8289132950    0.8333027830
H438       H    0.1666421609    0.7583383489    0.8333654752
C419       C    0.4267686938    0.9810240761    0.8978937081
C420       C    0.4160447540    0.9774834682    0.9337610372
C421       C    0.3730450569    0.9671460667    0.9442864434
C422       C    0.3407692995    0.9603492731    0.9189445205
C423       C    0.3514932393    0.9638898811    0.8830771913
C424       C    0.3944929365    0.9742272826    0.8725517851
H425       H    0.4585996384    0.9886764383    0.8901021736
H426       H    0.3651058740    0.9645249942    0.9708356461
H427       H    0.3089383549    0.9526969110    0.9267360549
H428       H    0.4024321194    0.9768483551    0.8460025825
C409       C    0.3440662157    1.0514716978    0.7793092531
C410       C    0.3016046567    1.0137685642    0.7835766243
C411       C    0.2659367673    1.0083367256    0.7625009821
C412       C    0.2727304370    1.0406080205    0.7371579686
C413       C    0.3151919960    1.0783111541    0.7328905974
C414       C    0.3508598854    1.0837429927    0.7539662396
H415       H    0.3704697182    1.0554926692    0.7949107025
H416       H    0.2345057434    0.9804288283    0.7656590081
H417       H    0.2463269345    1.0365870491    0.7215565192
H418       H    0.3822909093    1.1116508900    0.7508082136
C399       C    0.6817959987    0.5941081652    0.5683264410
C400       C    0.6848307745    0.6305615817    0.5497443013
C401       C    0.7201410535    0.6738135652    0.5565048648
C402       C    0.7524165568    0.6806121321    0.5818475681
C403       C    0.7493817811    0.6441587156    0.6004297078
C404       C    0.7140715020    0.6009067322    0.5936691443
H405       H    0.6556572207    0.5620904632    0.5633218680
H406       H    0.7223885012    0.7007976233    0.5427506450
H407       H    0.7785553348    0.7126298341    0.5868521411
H408       H    0.7118240543    0.5739226741    0.6074233641
C389       C    0.6006133752    0.6728574914    0.4267223488
C390       C    0.6349535739    0.6804438888    0.4502411016
C391       C    0.6760944679    0.7203048101    0.4484177408
C392       C    0.6828951632    0.7525793341    0.4230756273
C393       C    0.6485549645    0.7449929367    0.3995568746
C394       C    0.6074140705    0.7051320154    0.4013802353
H395       H    0.5701584277    0.6433500562    0.4280721093
H396       H    0.7015142629    0.7259214960    0.4658261804
H397       H    0.7133501107    0.7820867693    0.4217258668
H398       H    0.5819942754    0.6995153295    0.3839717958
C379       C    0.5202725675    0.5158730767    0.4680516456
C380       C    0.5405550335    0.5361628138    0.4999943271
C381       C    0.5202727344    0.5158848606    0.5319378418
C382       C    0.4797079693    0.4753171703    0.5319386749
C383       C    0.4594255033    0.4550274331    0.4999959933
C384       C    0.4797078024    0.4753053864    0.4680524787
H385       H    0.5352867370    0.5308840291    0.4444051478
H386       H    0.5352851018    0.5309026102    0.5555827120
H387       H    0.4646937999    0.4603062179    0.5555851727
H388       H    0.4646954351    0.4602876368    0.4444076085
C369       C    0.4444303975    0.0148347597    0.1020317422
C370       C    0.4341556404    0.0136991252    0.0662303073
C371       C    0.3984078014    0.0193688094    0.0557729283
C372       C    0.3729347195    0.0261741281    0.0811169843
C373       C    0.3832094766    0.0273097626    0.1169184193
C374       C    0.4189573156    0.0216400784    0.1273757982
H375       H    0.4708930835    0.0106377208    0.1097729188
H376       H    0.3908013314    0.0185283962    0.0292725025
H377       H    0.3464720335    0.0303711670    0.0733758077
H378       H    0.4265637856    0.0224804916    0.1538762241
C359       C    0.2927574669    0.1216824441    0.1666647264
C360       C    0.3333242211    0.1216950414    0.1666677452
C361       C    0.3738857928    0.1622649714    0.1666669429
C362       C    0.3738806101    0.2028223041    0.1666631216
C363       C    0.3333138558    0.2028097068    0.1666601028
C364       C    0.2927522842    0.1622397768    0.1666609051
H365       H    0.2627313684    0.0916501583    0.1666653203
H366       H    0.4039144438    0.1622755798    0.1666691774
H367       H    0.4039067086    0.2328545899    0.1666625277
H368       H    0.2627236332    0.1622291684    0.1666586706
C349       C    0.3026956401   -0.0232057195    0.2487256580
C350       C    0.2834437996   -0.0225738937    0.2164221901
C351       C    0.2387121882   -0.0542244037    0.2094583989
C352       C    0.2132324173   -0.0865067395    0.2347980757
C353       C    0.2324842579   -0.0871385653    0.2671015436
C354       C    0.2772158692   -0.0554880553    0.2740653348
H355       H    0.3358086511    0.0002238788    0.2538806723
H356       H    0.2244606287   -0.0537577302    0.1855472663
H357       H    0.1801194063   -0.1099363378    0.2296430614
H358       H    0.2914674288   -0.0559547288    0.2979764674
C339       C    0.7072105933    0.8289327821    0.8333365296
C340       C    0.6666502684    0.7883606556    0.8333275145
C341       C    0.6260822739    0.7883446174    0.8333134836
C342       C    0.6260746045    0.8289007057    0.8333084677
C343       C    0.6666349294    0.8694728322    0.8333174827
C344       C    0.7072029238    0.8694888704    0.8333315137
H345       H    0.7372414463    0.8289446546    0.8333469162
H346       H    0.5960583817    0.7583132730    0.8333068102
H347       H    0.5960437515    0.8288888332    0.8332980811
H348       H    0.7372268161    0.8995202148    0.8333381871
C329       C    0.7242288697    0.6459421855    0.7409331293
C330       C    0.7674895065    0.6803730618    0.7328966176
C331       C    0.7852755242    0.7216076436    0.7502037422
C332       C    0.7598009049    0.7284113492    0.7755473784
C333       C    0.7165402681    0.6939804729    0.7835838901
C334       C    0.6987542505    0.6527458910    0.7662767656
H335       H    0.7110625969    0.6154178847    0.7281213618
H336       H    0.8172974567    0.7470945609    0.7442556925
H337       H    0.7729671777    0.7589356500    0.7883591459
H338       H    0.6667323180    0.6272589738    0.7722248152
C319       C    0.5751476978    0.6076060929    0.8739815909
C320       C    0.6167766281    0.6440952661    0.8830842050
C321       C    0.6329264101    0.6483026377    0.9175270261
C322       C    0.6074472618    0.6160208361    0.9428672332
C323       C    0.5658183315    0.5795316629    0.9337646191
C324       C    0.5496685495    0.5753242913    0.8993217980
H325       H    0.5631926644    0.6044915451    0.8484849571
H326       H    0.6637405075    0.6753119271    0.9242658388
H327       H    0.6194022953    0.6191353839    0.9683638670
H328       H    0.5188544521    0.5483150019    0.8925829854
C309       C   -0.0322534781    0.2870407197    0.5668318231
C310       C   -0.0498843649    0.3107652449    0.5497495036
C311       C   -0.0929946570    0.3022076814    0.5580071298
C312       C   -0.1184740623    0.2699255926    0.5833470754
C313       C   -0.1008431755    0.2462010674    0.6004293949
C314       C   -0.0577328834    0.2547586309    0.5921717687
H315       H   -0.0003406645    0.2933755395    0.5607190349
H316       H   -0.1060463411    0.3197682198    0.5453631189
H317       H   -0.1503868760    0.2635907728    0.5894598635
H318       H   -0.0446811993    0.2371980925    0.6048157796
C299       C    0.0687756206    0.3108851459    0.4192537661
C300       C    0.1008356025    0.3470510580    0.3995587558
C301       C    0.1074198047    0.3900182050    0.4052078637
C302       C    0.0819440251    0.3968194400    0.4305519819
C303       C    0.0498840432    0.3606535279    0.4502469921
C304       C    0.0432998410    0.3176863809    0.4445978842
H305       H    0.0639016008    0.2790782968    0.4150719589
H306       H    0.1311506978    0.4167894444    0.3906298659
H307       H    0.0868180450    0.4286262891    0.4347337890
H308       H    0.0195689480    0.2909151415    0.4591758821
C289       C   -0.0000314711    0.5158689851    0.5319334758
C290       C   -0.0000284389    0.5361427880    0.4999884097
C291       C   -0.0000171473    0.5158607974    0.4680472807
C292       C   -0.0000088880    0.4753050039    0.4680512178
C293       C   -0.0000119203    0.4550312010    0.4999962839
C294       C   -0.0000232118    0.4753131916    0.5319374129
H295       H   -0.0000398298    0.5308829262    0.5555782077
H296       H   -0.0000149025    0.5308667524    0.4444006455
H297       H   -0.0000005293    0.4602910629    0.4444064860
H298       H   -0.0000254566    0.4603072366    0.5555840482
loop_
_geom_bond_atom_site_label_1
_geom_bond_atom_site_label_2
_geom_bond_distance
_geom_bond_site_symmetry_2
_ccdc_geom_bond_type
C471       H476 1.140       .   S
C511       H516 1.140       .   S
C512       H517 1.140       .   S
C509       H515 1.140       .   S
C514       H518 1.140       .   S
C694       H698 1.140       .   S
C689       H695 1.140       .   S
C692       H697 1.140       .   S
C691       H696 1.140       .   S
C562       H567 1.140       .   S
C562       C563 1.540       .   A
C561       C562 1.540       .   A
C563       C564 1.540       .   A
C563       C244 1.498   1_565   S
C560        C86 1.498       .   S
C560       C561 1.540       .   A
C559       C560 1.540       .   A
C561       H566 1.140       .   S
O238      Cu242 1.951       .   S
O238       C245 1.251       .   A
O239      Cu242 1.951       .   S
O239       C244 1.250       .   A
O236       C246 1.250       .   A
O236      Cu241 1.951       .   S
O237      Cu242 1.951       .   S
O237       C246 1.250       .   A
O234      Cu241 1.951       .   S
O234       C244 1.250       .   A
O235       C245 1.250       .   A
O235      Cu241 1.951       .   S
O233       C243 1.250       .   A
O233      Cu241 1.951       .   S
C245       C313 1.498   1_655   S
C344       H348 1.140       .   S
C461       H466 1.140       .   S
C462       H467 1.140       .   S
C459       H465 1.140       .   S
C373        C21 1.498       .   S
C373       C374 1.540       .   A
C372       C373 1.540       .   A
C464       H468 1.140       .   S
C342       H347 1.140       .   S
C341       H346 1.140       .   S
C339       H345 1.140       .   S
C301       H306 1.140       .   S
C301       C302 1.540       .   A
C300       C301 1.540       .   A
C371       H376 1.140       .   S
C371       C372 1.540       .   A
C370       C371 1.540       .   A
C370       C258 1.498   1_544   S
C369       C370 1.540       .   A
C479       C480 1.540       .   A
C479       C484 1.540       .   A
C479       H485 1.140       .   S
O278      Cu283 1.951       .   S
Cu283     Cu284 2.630       .   S
O276      Cu283 1.951       .   S
O277      Cu283 1.951       .   S
O275      Cu283 1.951       .   S
O282      Cu284 1.951       .   S
O281      Cu284 1.951       .   S
O279      Cu284 1.951       .   S
O280      Cu284 1.951       .   S
O163       C173 1.250       .   A
O163      Cu171 1.951       .   S
O166      Cu171 1.951       .   S
O166       C176 1.250       .   A
O167       C176 1.250       .   A
O167      Cu172 1.951       .   S
O164      Cu171 1.951       .   S
O164       C174 1.250       .   A
O165       C175 1.250       .   A
O165      Cu171 1.951       .   S
O168       C175 1.251       .   A
O168      Cu172 1.951       .   S
O169       C174 1.250       .   A
O169      Cu172 1.951       .   S
C669       C670 1.540       .   A
C669       H675 1.140       .   S
C669       C674 1.540       .   A
C482       C483 1.540       .   A
C483        C84 1.499       .   S
C483       C484 1.540       .   A
C232       C683 1.498   1_455   S
O223       C232 1.250       .   A
O222       C232 1.250       .   A
C481       C482 1.540       .   A
C482       H487 1.140       .   S
O220       C230 1.250       .   A
C230       C613 1.498   1_455   S
O225       C230 1.250       .   A
C484       H488 1.140       .   S
O266      Cu270 1.951       .   S
O266       C273 1.251       .   A
C15         H18 1.140       .   S
C46         C47 1.540       .   A
C46         C51 1.540       .   A
C46        C440 1.499       .   S
C47         C48 1.540       .   A
C47         H52 1.140       .   S
C40         H44 1.140       .   S
C39         C40 1.540       .   A
C40         C41 1.540       .   A
C41         C42 1.540       .   A
C41        C423 1.498       .   S
C42         H45 1.140       .   S
C37         C42 1.540       .   A
C641       H646 1.140       .   S
C642       H647 1.140       .   S
C639       H645 1.140       .   S
C48         C49 1.540       .   A
C460        C48 1.499       .   S
C49         H53 1.140       .   S
C49         C50 1.540       .   A
C11         H16 1.140       .   S
C13         H17 1.140       .   S
C592       C593 1.540       .   A
C593       C204 1.498       .   S
C593       C594 1.540       .   A
C592       H597 1.140       .   S
C591       C592 1.540       .   A
C591       H596 1.140       .   S
C590       C591 1.540       .   A
C590        C91 1.498       .   S
C589       C590 1.540       .   A
C589       C594 1.540       .   A
C594       H598 1.140       .   S
O210      Cu214 1.951       .   S
O211      Cu214 1.951       .   S
O209      Cu214 1.951       .   S
O212      Cu214 1.951       .   S
Cu213     Cu214 2.630       .   S
C599       C600 1.540       .   A
C599       H605 1.140       .   S
C599       C604 1.540       .   A
O208      Cu213 1.951       .   S
O207      Cu213 1.951       .   S
O206      Cu213 1.951       .   S
O205      Cu213 1.951       .   S
C289       H295 1.140       .   S
C292       H297 1.140       .   S
C291       H296 1.140       .   S
C294       H298 1.140       .   S
C112       H116 1.140       .   S
C114       H117 1.140       .   S
C110       H115 1.140       .   S
C699       C700 1.540       .   A
C699       H705 1.140       .   S
C699       C704 1.540       .   A
C349       C354 1.540       .   A
C349       C350 1.540       .   A
C349       H355 1.140       .   S
C609       C614 1.540       .   A
C613       C614 1.540       .   A
C614       H618 1.140       .   S
C690       C136 1.498       .   S
C689       C690 1.540       .   A
C690       C691 1.540       .   A
C691       C692 1.540       .   A
C692       C693 1.540       .   A
C693       C285 1.498       .   S
C693       C694 1.540       .   A
C689       C694 1.540       .   A
C343       C344 1.540       .   A
C339       C344 1.540       .   A
C293       C294 1.540       .   A
C293         C5 1.499       .   S
C292       C293 1.540       .   A
C311       C312 1.540       .   A
C312       C313 1.540       .   A
C312       H317 1.140       .   S
C492       H497 1.140       .   S
C491       H496 1.140       .   S
C489       H495 1.140       .   S
C494       H498 1.140       .   S
C313       C314 1.540       .   A
C314       H318 1.140       .   S
C309       C314 1.540       .   A
C519       C524 1.540       .   A
C524       H528 1.140       .   S
C523       C524 1.540       .   A
C522       H527 1.140       .   S
C522       C523 1.540       .   A
C521       C522 1.540       .   A
C523        C66 1.498       .   S
C520       C521 1.540       .   A
C519       C520 1.540       .   A
C243       C520 1.498   1_655   S
C288       C403 1.498       .   S
O278       C288 1.250       .   A
O279       C288 1.250       .   A
O280       C287 1.251       .   A
O277       C287 1.250       .   A
C287       C653 1.498   1_655   S
O281       C286 1.250       .   A
C286       C330 1.498       .   S
O276       C286 1.250       .   A
O282       C285 1.250       .   A
O275       C285 1.250       .   A
C529       C530 1.540       .   A
C529       C534 1.540       .   A
C529       H535 1.140       .   S
C449       C450 1.540       .   A
C449       H455 1.140       .   S
C449       C454 1.540       .   A
C119       C120 1.540       .   A
C119       H124 1.140       .   S
C118       C119 1.540       .   A
C640       C118 1.498       .   S
C118       C123 1.540       .   A
C439       C444 1.540       .   A
C444       H448 1.140       .   S
C443       C444 1.540       .   A
C113       C114 1.540       .   A
C109       C114 1.540       .   A
C113       C383 1.499       .   S
C112       C113 1.540       .   A
C111       C112 1.540       .   A
C111       C630 1.498       .   S
C110       C111 1.540       .   A
C109       C110 1.540       .   A
C559       C564 1.540       .   A
C564       H568 1.140       .   S
C421       H426 1.140       .   S
O240       C243 1.250       .   A
C419       H425 1.140       .   S
C384       H388 1.140       .   S
C382       H387 1.140       .   S
C381       H386 1.140       .   S
C379       H385 1.140       .   S
C424       H428 1.140       .   S
C569       C574 1.540       .   A
C569       C570 1.540       .   A
C569       H575 1.140       .   S
C544       H548 1.140       .   S
C539       H545 1.140       .   S
C542       H547 1.140       .   S
C541       H546 1.140       .   S
C246       C713 1.498   1_545   S
O265      Cu270 1.951       .   S
O265       C274 1.250       .   A
O264      Cu269 1.951       .   S
O264       C274 1.250       .   A
O267      Cu270 1.951       .   S
O267       C272 1.250       .   A
O221       C231 1.250       .   A
O224       C231 1.251       .   A
C231       C353 1.498   1_565   S
O261      Cu269 1.951       .   S
O261       C271 1.250       .   A
O263      Cu269 1.951       .   S
O263       C273 1.250       .   A
O262      Cu269 1.951       .   S
O262       C272 1.250       .   A
C364       H368 1.140       .   S
C359       C364 1.540       .   A
C363       C364 1.540       .   A
O268      Cu270 1.951       .   S
O268       C271 1.250       .   A
C584       H588 1.140       .   S
C422       H427 1.140       .   S
C290       C291 1.540       .   A
C291       C292 1.540       .   A
C629       C634 1.540       .   A
C629       H635 1.140       .   S
C629       C630 1.540       .   A
C632       H637 1.140       .   S
C631       H636 1.140       .   S
C620       C621 1.540       .   A
C621       H626 1.140       .   S
C621       C622 1.540       .   A
C109       C620 1.499       .   S
C619       C620 1.540       .   A
C623       C202 1.499       .   S
C622       C623 1.540       .   A
C623       C624 1.540       .   A
C622       H627 1.140       .   S
Cu171     Cu172 2.630       .   S
O170      Cu172 1.951       .   S
C331       H336 1.140       .   S
C661       H666 1.140       .   S
C329       H335 1.140       .   S
C334       H338 1.140       .   S
C50        C450 1.498       .   S
C450       C451 1.540       .   A
C619       C624 1.540       .   A
C624       H628 1.140       .   S
O193       C203 1.250       .   A
O193      Cu199 1.951       .   S
O192       C202 1.250       .   A
O192      Cu199 1.951       .   S
O191       C201 1.250       .   A
O191      Cu199 1.951       .   S
O197      Cu200 1.951       .   S
O197       C202 1.250       .   A
O196      Cu200 1.951       .   S
O196       C203 1.251       .   A
O195       C204 1.250       .   A
O195      Cu200 1.951       .   S
O194       C204 1.250       .   A
O194      Cu199 1.951       .   S
O198      Cu200 1.951       .   S
O198       C201 1.250       .   A
C724       H728 1.140       .   S
O247      Cu255 1.951       .   S
O250      Cu255 1.951       .   S
Cu255     Cu256 2.630       .   S
O249      Cu255 1.951       .   S
O248      Cu255 1.951       .   S
O254      Cu256 1.951       .   S
O251      Cu256 1.951       .   S
O252      Cu256 1.951       .   S
O253      Cu256 1.951       .   S
C719       H725 1.140       .   S
C722       H727 1.140       .   S
C721       H726 1.140       .   S
C714       H718 1.140       .   S
C709       C714 1.540       .   A
C713       C714 1.540       .   A
C710       C711 1.540       .   A
C711       H716 1.140       .   S
C711       C712 1.540       .   A
C709       C710 1.540       .   A
C710       C145 1.498       .   S
C712       C713 1.540       .   A
C712       H717 1.140       .   S
C489       C494 1.540       .   A
C493       C494 1.540       .   A
C719       C724 1.540       .   A
C719       C720 1.540       .   A
C150       H153 1.140       .   S
C489       C490 1.540       .   A
C490       C203 1.498   1_565   S
C490       C491 1.540       .   A
C146       H151 1.140       .   S
C509       C510 1.540       .   A
C510       C511 1.540       .   A
C510        C68 1.499       .   S
C659       C664 1.540       .   A
C659       C660 1.540       .   A
C659       H665 1.140       .   S
C309       C310 1.540       .   A
C309       H315 1.140       .   S
C654       H658 1.140       .   S
C649       C654 1.540       .   A
C653       C654 1.540       .   A
C304       H308 1.140       .   S
C299       C304 1.540       .   A
C303       C304 1.540       .   A
C649       C650 1.540       .   A
C650       C651 1.540       .   A
C120       C650 1.498       .   S
C651       C652 1.540       .   A
C651       H656 1.140       .   S
C652       H657 1.140       .   S
C652       C653 1.540       .   A
C513       C514 1.540       .   A
C509       C514 1.540       .   A
C609       H615 1.140       .   S
C612       H617 1.140       .   S
C611       H616 1.140       .   S
C589       H595 1.140       .   S
O221      Cu227 1.951       .   S
O219      Cu227 1.951       .   S
O222      Cu227 1.951       .   S
Cu227     Cu228 2.630       .   S
O220      Cu227 1.951       .   S
C39        C430 1.499       .   S
C38         C39 1.540       .   A
C38         H43 1.140       .   S
C37         C38 1.540       .   A
C37        C410 1.498       .   S
C31         H35 1.140       .   S
C30         C31 1.540       .   A
C31         C32 1.540       .   A
C30        C400 1.498       .   S
C29         C30 1.540       .   A
C28         C33 1.540       .   A
C33         H36 1.140       .   S
C32         C33 1.540       .   A
C380        C32 1.499       .   S
C400       C401 1.540       .   A
C401       C402 1.540       .   A
C401       H406 1.140       .   S
C399       C400 1.540       .   A
C403       C404 1.540       .   A
C402       C403 1.540       .   A
C149       C150 1.540       .   A
C145       C150 1.540       .   A
C157       H161 1.140       .   S
C157       C158 1.540       .   A
C156       C157 1.540       .   A
C155       C156 1.540       .   A
C363       C156 1.499       .   S
C155       H160 1.140       .   S
C154       C155 1.540       .   A
C154       C159 1.540       .   A
C720       C154 1.498       .   S
C409       C414 1.540       .   A
C409       H415 1.140       .   S
C409       C410 1.540       .   A
C159       H162 1.140       .   S
C158       C159 1.540       .   A
C158       C730 1.498       .   S
C51         H54 1.140       .   S
C20         H25 1.140       .   S
C393       C187 1.499       .   S
C392       C393 1.540       .   A
C393       C394 1.540       .   A
C391       C392 1.540       .   A
C392       H397 1.140       .   S
C394       H398 1.140       .   S
C389       C394 1.540       .   A
C399       C404 1.540       .   A
C399       H405 1.140       .   S
C24         H27 1.140       .   S
O254       C257 1.250       .   A
C649       H655 1.140       .   S
O250       C260 1.250       .   A
O251       C260 1.250       .   A
O252       C259 1.251       .   A
O253       C258 1.250       .   A
C499       H505 1.140       .   S
C502       H507 1.140       .   S
C501       H506 1.140       .   S
C504       H508 1.140       .   S
C274       C633 1.498       .   S
C272       C733 1.498       .   S
C273       C453 1.498   1_455   S
C300       C271 1.498       .   S
C474       H478 1.140       .   S
C469       C474 1.540       .   A
C473       C474 1.540       .   A
C579       C580 1.540       .   A
C579       H585 1.140       .   S
C579       C584 1.540       .   A
C499       C500 1.540       .   A
C499       C504 1.540       .   A
C472       H477 1.140       .   S
C471       C472 1.540       .   A
C472       C473 1.540       .   A
C473       C229 1.498       .   S
O223      Cu228 1.951       .   S
O225      Cu228 1.951       .   S
O224      Cu228 1.951       .   S
C573       C190 1.498       .   S
C573       C574 1.540       .   A
C572       C573 1.540       .   A
O226       C229 1.250       .   A
O226      Cu228 1.951       .   S
C512       C513 1.540       .   A
C513        C93 1.499       .   S
C372       H377 1.140       .   S
C369       H375 1.140       .   S
C492       C493 1.540       .   A
C491       C492 1.540       .   A
C374       H378 1.140       .   S
C571       H576 1.140       .   S
C572       H577 1.140       .   S
C469       H475 1.140       .   S
C511       C512 1.540       .   A
C574       H578 1.140       .   S
C493        C55 1.498       .   S
C350       C351 1.540       .   A
C350        C19 1.498       .   S
C610       C611 1.540       .   A
C610       C104 1.498       .   S
C609       C610 1.540       .   A
C611       C612 1.540       .   A
C612       C613 1.540       .   A
O179      Cu185 1.951       .   S
O179       C189 1.250       .   A
O178       C188 1.250       .   A
O178      Cu185 1.951       .   S
C619       H625 1.140       .   S
O177       C187 1.250       .   A
O177      Cu185 1.951       .   S
O170       C173 1.250       .   A
C552       H557 1.140       .   S
C73         C78 1.540       .   A
C78         H81 1.140       .   S
C77         C78 1.540       .   A
C709       H715 1.140       .   S
C359       H365 1.140       .   S
C359       C360 1.540       .   A
C73         C74 1.540       .   A
C550        C73 1.498       .   S
C22         H26 1.140       .   S
C530        C75 1.499       .   S
C74         C75 1.540       .   A
C75         C76 1.540       .   A
C74         H79 1.140       .   S
C540        C77 1.498       .   S
C76         C77 1.540       .   A
C76         H80 1.140       .   S
Cu269     Cu270 2.630       .   S
C103       H107 1.140       .   S
C101       H106 1.140       .   S
C105       H108 1.140       .   S
C354       H358 1.140       .   S
C353       C354 1.540       .   A
C351       H356 1.140       .   S
C351       C352 1.540       .   A
C729       C734 1.540       .   A
C729       H735 1.140       .   S
C729       C730 1.540       .   A
C352       C353 1.540       .   A
C352       H357 1.140       .   S
C723       C724 1.540       .   A
C148       H152 1.140       .   S
C720       C721 1.540       .   A
C721       C722 1.540       .   A
C722       C723 1.540       .   A
C217       C723 1.498   1_556   S
C682       C683 1.540       .   A
C683       C684 1.540       .   A
C681       C682 1.540       .   A
C682       H687 1.140       .   S
C680       C681 1.540       .   A
C681       H686 1.140       .   S
C680       C140 1.498       .   S
C679       C680 1.540       .   A
C684       H688 1.140       .   S
C679       C684 1.540       .   A
C530       C531 1.540       .   A
C531       C532 1.540       .   A
C531       H536 1.140       .   S
C660       C661 1.540       .   A
C661       C662 1.540       .   A
C532       C533 1.540       .   A
C532       H537 1.140       .   S
C534       H538 1.140       .   S
C533       C534 1.540       .   A
C664       H668 1.140       .   S
C663       C664 1.540       .   A
C539       C544 1.540       .   A
C539       C540 1.540       .   A
C679       H685 1.140       .   S
C439       C440 1.540       .   A
C439       H445 1.140       .   S
C128       C129 1.540       .   A
C127       C128 1.540       .   A
C128       H133 1.140       .   S
C129       C130 1.540       .   A
C463       C129 1.499       .   S
C121       C122 1.540       .   A
C122       C123 1.540       .   A
C122       C433 1.499       .   S
C123       H126 1.140       .   S
C120       C121 1.540       .   A
C121       H125 1.140       .   S
C434       H438 1.140       .   S
C429       C434 1.540       .   A
C433       C434 1.540       .   A
C127       C132 1.540       .   A
C660       C127 1.498       .   S
C663       C188 1.498   1_545   S
C662       C663 1.540       .   A
C302       H307 1.140       .   S
C302       C303 1.540       .   A
C662       H667 1.140       .   S
C303         C1 1.498       .   S
C459       C464 1.540       .   A
C459       C460 1.540       .   A
C429       H435 1.140       .   S
C299       C300 1.540       .   A
C432       H437 1.140       .   S
C431       H436 1.140       .   S
C92         C93 1.540       .   A
C93         C94 1.540       .   A
C91         C92 1.540       .   A
C92         H97 1.140       .   S
C91         C96 1.540       .   A
C96         H99 1.140       .   S
C95         C96 1.540       .   A
C94         C95 1.540       .   A
C580        C95 1.498       .   S
C94         H98 1.140       .   S
O210       C217 1.251       .   A
O211       C216 1.250       .   A
O212       C215 1.250       .   A
O219       C229 1.250       .   A
C540       C541 1.540       .   A
C541       C542 1.540       .   A
C542       C543 1.540       .   A
C543       C544 1.540       .   A
C216       C543 1.498   1_556   S
C549       H555 1.140       .   S
C549       C554 1.540       .   A
C549       C550 1.540       .   A
C552       C553 1.540       .   A
C551       C552 1.540       .   A
C551       H556 1.140       .   S
C550       C551 1.540       .   A
C189       C553 1.498       .   S
C553       C554 1.540       .   A
C441       H446 1.140       .   S
C442       H447 1.140       .   S
C324       H328 1.140       .   S
C319       H325 1.140       .   S
C322       H327 1.140       .   S
C321       H326 1.140       .   S
C480       C481 1.540       .   A
C481       H486 1.140       .   S
C480        C59 1.499       .   S
C139       H143 1.140       .   S
C137       H142 1.140       .   S
C141       H144 1.140       .   S
C319       C320 1.540       .   A
C319       C324 1.540       .   A
C310       C311 1.540       .   A
C311       H316 1.140       .   S
C310         C3 1.498       .   S
C643       C644 1.540       .   A
C644       H648 1.140       .   S
C639       C644 1.540       .   A
C642       C643 1.540       .   A
C174       C643 1.498   1_655   S
C641       C642 1.540       .   A
C640       C641 1.540       .   A
C639       C640 1.540       .   A
C22         C23 1.540       .   A
C21         C22 1.540       .   A
C23         C24 1.540       .   A
C360        C23 1.499       .   S
C19         C20 1.540       .   A
C20         C21 1.540       .   A
C19         C24 1.540       .   A
C28         C29 1.540       .   A
C28        C390 1.499       .   S
C29         H34 1.140       .   S
C533       C102 1.499       .   S
C582       H587 1.140       .   S
C581       H586 1.140       .   S
C130       H134 1.140       .   S
C132       H135 1.140       .   S
C369       C374 1.540       .   A
C56         H61 1.140       .   S
C60         H63 1.140       .   S
C58         H62 1.140       .   S
C360       C361 1.540       .   A
C361       C362 1.540       .   A
C361       H366 1.140       .   S
C362       H367 1.140       .   S
C362       C363 1.540       .   A
O184       C187 1.250       .   A
O249       C259 1.250       .   A
O248       C258 1.250       .   A
O247       C257 1.250       .   A
O183       C188 1.250       .   A
O182       C189 1.251       .   A
O240      Cu242 1.951       .   S
C85         H89 1.140       .   S
C83         H88 1.140       .   S
C420       C260 1.498       .   S
C463       C464 1.540       .   A
C462       C463 1.540       .   A
C461       C462 1.540       .   A
C460       C461 1.540       .   A
C500        C64 1.498       .   S
C500       C501 1.540       .   A
C501       C502 1.540       .   A
C502       C503 1.540       .   A
C175       C503 1.498   1_655   S
C503       C504 1.540       .   A
C469       C470 1.540       .   A
C451       H456 1.140       .   S
C430       C431 1.540       .   A
C429       C430 1.540       .   A
C402       H407 1.140       .   S
C431       C432 1.540       .   A
C432       C433 1.540       .   A
C404       H408 1.140       .   S
C559       H565 1.140       .   S
C215       C583 1.498       .   S
O205       C215 1.250       .   A
O206       C216 1.250       .   A
O207       C217 1.250       .   A
C341       C342 1.540       .   A
C340       C341 1.540       .   A
O209       C218 1.250       .   A
O208       C218 1.250       .   A
C218       C323 1.498       .   S
C603       C604 1.540       .   A
C176       C603 1.498   1_556   S
C602       C603 1.540       .   A
C601       C602 1.540       .   A
C602       H607 1.140       .   S
C600       C601 1.540       .   A
C601       H606 1.140       .   S
C600       C100 1.498       .   S
C604       H608 1.140       .   S
Cu199     Cu200 2.630       .   S
C390       C391 1.540       .   A
C391       H396 1.140       .   S
Cu241     Cu242 2.630       .   S
C389       C390 1.540       .   A
C582       C583 1.540       .   A
C583       C584 1.540       .   A
C2           C3 1.540       .   A
C3           C4 1.540       .   A
C1           C2 1.540       .   A
C2           H7 1.140       .   S
C1           C6 1.540       .   A
C6           H9 1.140       .   S
C5           C6 1.540       .   A
C4           C5 1.540       .   A
C4           H8 1.140       .   S
C702       H707 1.140       .   S
C701       H706 1.140       .   S
C64         C69 1.540       .   A
C69         H72 1.140       .   S
C68         C69 1.540       .   A
C66         C67 1.540       .   A
C65         C66 1.540       .   A
C67         C68 1.540       .   A
C67         H71 1.140       .   S
C64         C65 1.540       .   A
C65         H70 1.140       .   S
C55         C60 1.540       .   A
C59         C60 1.540       .   A
C320       C321 1.540       .   A
C10        C320 1.498       .   S
C321       C322 1.540       .   A
C322       C323 1.540       .   A
C323       C324 1.540       .   A
C329       C330 1.540       .   A
C329       C334 1.540       .   A
C733       C734 1.540       .   A
C734       H738 1.140       .   S
C732       C733 1.540       .   A
C732       H737 1.140       .   S
C731       C732 1.540       .   A
C731       H736 1.140       .   S
C730       C731 1.540       .   A
C289       C294 1.540       .   A
C289       C290 1.540       .   A
C634       H638 1.140       .   S
C12         C13 1.540       .   A
C13         C14 1.540       .   A
C11         C12 1.540       .   A
C340        C12 1.499       .   S
C10         C11 1.540       .   A
C10         C15 1.540       .   A
C14         C15 1.540       .   A
C14        C333 1.498       .   S
C136       C137 1.540       .   A
C137       C138 1.540       .   A
C136       C141 1.540       .   A
C130       C131 1.540       .   A
C131       C132 1.540       .   A
C670       C131 1.498       .   S
C332       H337 1.140       .   S
C139       C140 1.540       .   A
C138       C139 1.540       .   A
C290       C138 1.499   1_455   S
C422       C423 1.540       .   A
C423       C424 1.540       .   A
C421       C422 1.540       .   A
C420       C421 1.540       .   A
C419       C420 1.540       .   A
C419       C424 1.540       .   A
C342       C343 1.540       .   A
C330       C331 1.540       .   A
C343       C147 1.499       .   S
C339       C340 1.540       .   A
C82         C83 1.540       .   A
C82         C87 1.540       .   A
C570        C82 1.498       .   S
C83         C84 1.540       .   A
C84         C85 1.540       .   A
C85         C86 1.540       .   A
C86         C87 1.540       .   A
C87         H90 1.140       .   S
C521       H526 1.140       .   S
C519       H525 1.140       .   S
C673       C259 1.498   1_544   S
C554       H558 1.140       .   S
C700       C257 1.498       .   S
C452       H457 1.140       .   S
C454       H458 1.140       .   S
C672       C673 1.540       .   A
C671       C672 1.540       .   A
C672       H677 1.140       .   S
C673       C674 1.540       .   A
C670       C671 1.540       .   A
C671       H676 1.140       .   S
C674       H678 1.140       .   S
C56         C57 1.540       .   A
C57         C58 1.540       .   A
C470        C57 1.498       .   S
C55         C56 1.540       .   A
C50         C51 1.540       .   A
C58         C59 1.540       .   A
C580       C581 1.540       .   A
C581       C582 1.540       .   A
C379       C384 1.540       .   A
C379       C380 1.540       .   A
C470       C471 1.540       .   A
O180       C190 1.250       .   A
O181       C190 1.250       .   A
C299       H305 1.140       .   S
C570       C571 1.540       .   A
C571       C572 1.540       .   A
C452       C453 1.540       .   A
C451       C452 1.540       .   A
C453       C454 1.540       .   A
C104       C105 1.540       .   A
C103       C104 1.540       .   A
C100       C105 1.540       .   A
C100       C101 1.540       .   A
C101       C102 1.540       .   A
C102       C103 1.540       .   A
C389       H395 1.140       .   S
C413       C414 1.540       .   A
C412       C413 1.540       .   A
C201       C413 1.498   1_545   S
C414       H418 1.140       .   S
C412       H417 1.140       .   S
C411       H416 1.140       .   S
O180      Cu185 1.951       .   S
Cu185     Cu186 2.630       .   S
O181      Cu186 1.951       .   S
O182      Cu186 1.951       .   S
O183      Cu186 1.951       .   S
O184      Cu186 1.951       .   S
C633       C634 1.540       .   A
C632       C633 1.540       .   A
C631       C632 1.540       .   A
C630       C631 1.540       .   A
C410       C411 1.540       .   A
C440       C441 1.540       .   A
C441       C442 1.540       .   A
C411       C412 1.540       .   A
C173       C443 1.499   1_556   S
C442       C443 1.540       .   A
C332       C333 1.540       .   A
C333       C334 1.540       .   A
C331       C332 1.540       .   A
C702       C703 1.540       .   A
C701       C702 1.540       .   A
C703       C149 1.498       .   S
C703       C704 1.540       .   A
C700       C701 1.540       .   A
C383       C384 1.540       .   A
C704       H708 1.140       .   S
C382       C383 1.540       .   A
C381       C382 1.540       .   A
C140       C141 1.540       .   A
C145       C146 1.540       .   A
C146       C147 1.540       .   A
C147       C148 1.540       .   A
C148       C149 1.540       .   A
C380       C381 1.540       .   A
