data_fog_3c_B_4c_Cu_1_1B_4H_1B_4H
_audit_creation_date              2019-04-16
_audit_creation_method            'tobacco_3.0'
_symmetry_space_group_name_H-M    'P1'
_symmetry_Int_Tables_number       1
_symmetry_cell_setting            triclinic
loop_
_symmetry_equiv_pos_as_xyz
  x,y,z
_cell_length_a                    39.44262950821408
_cell_length_b                    39.442835236446676
_cell_length_c                    42.0665565467813
_cell_angle_alpha                 92.02897292677322
_cell_angle_beta                  87.97008278892277
_cell_angle_gamma                 124.04761126347873
loop_
_atom_site_label
_atom_site_type_symbol
_atom_site_fract_x
_atom_site_fract_y
_atom_site_fract_z
C1         C    0.0253512913    0.3685255486    0.4749042845
C2         C    0.0249960555    0.4073457777    0.4744179013
C3         C   -0.0003552358    0.4138202292    0.4995136168
C4         C   -0.0253512913    0.3814744514    0.5250957155
C5         C   -0.0249960555    0.3426542223    0.5255820987
C6         C    0.0003552358    0.3361797708    0.5004863832
H7         H    0.0435013807    0.4312951139    0.4554786503
H8         H   -0.0441178316    0.3862672272    0.5436730634
H9         H    0.0006164509    0.3074376589    0.5008482863
C10        C    0.6923902273    0.7021964172    0.8073833031
C11        C    0.6918886539    0.7409355045    0.8069341842
C12        C    0.6664497593    0.7472704786    0.8320404479
C13        C    0.6415124381    0.7148663654    0.8575958303
C14        C    0.6420140116    0.6761272781    0.8580449491
C15        C    0.6674529062    0.6697923040    0.8329386855
H16        H    0.7103504859    0.7649280225    0.7880147148
H17        H    0.6226810486    0.7195558916    0.8761809865
H18        H    0.6678224637    0.6411102597    0.8332729987
C19        C    0.3580876808    0.0356214722    0.1403556969
C20        C    0.3572338987    0.0741319371    0.1394383447
C21        C    0.3316055767    0.0805323630    0.1643012053
C22        C    0.3068310367    0.0484223241    0.1900814181
C23        C    0.3076848187    0.0099118592    0.1909987703
C24        C    0.3333131408    0.0035114333    0.1661359097
H25        H    0.3755751938    0.0979067266    0.1203523932
H26        H    0.2878594217    0.0531603017    0.2084863929
H27        H    0.3339434607   -0.0250013339    0.1668168865
C28        C    0.6509576733    0.6223644041    0.5198102732
C29        C    0.6094007905    0.5806962305    0.5195693497
C30        C    0.5767293786    0.5720021565    0.4955547372
C31        C    0.5856148495    0.6049762562    0.4717810483
C32        C    0.6271717323    0.6466444298    0.4720219718
C33        C    0.6598431442    0.6553385037    0.4960365843
H34        H    0.6028196482    0.5562815258    0.5371697274
H35        H    0.5614295185    0.5985403832    0.4540039975
H36        H    0.6906096175    0.6861890814    0.4962132573
C37        C    0.3180353192    0.9574258024    0.8525328169
C38        C    0.2763757074    0.9158607701    0.8528054776
C39        C    0.2434085539    0.9068946749    0.8289925560
C40        C    0.2521010122    0.9394936120    0.8049069737
C41        C    0.2937606240    0.9810586443    0.8046343129
C42        C    0.3267277775    0.9900247395    0.8284472345
H43        H    0.2699374509    0.8917238171    0.8706367962
H44        H    0.2276967557    0.9328563727    0.7872792265
H45        H    0.3575702905    1.0207989318    0.8282436631
C46        C    0.9585357623    0.3137761100    0.1394601938
C47        C    0.9168836211    0.2722017656    0.1395857672
C48        C    0.9080958466    0.2394815700    0.1635859458
C49        C    0.9409602133    0.2483357189    0.1874605510
C50        C    0.9826123545    0.2899100633    0.1873349776
C51        C    0.9914001290    0.3226302589    0.1633347990
H52        H    0.8925501562    0.2656438107    0.1219106699
H53        H    0.9344549776    0.2241142755    0.2052269169
H54        H    1.0222388296    0.3534096572    0.1632435304
C55        C    0.3746229044    1.0251653864    0.5153831584
C56        C    0.3425967516    1.0003352055    0.4895605188
C57        C    0.3491531934    0.9747852290    0.4647307645
C58        C    0.3877357881    0.9740654334    0.4657236499
C59        C    0.4197619409    0.9988956143    0.4915462895
C60        C    0.4132054990    1.0244455908    0.5163760438
H61        H    0.3140305905    1.0008663272    0.4888236194
H62        H    0.3925892580    0.9551518144    0.4473431824
H63        H    0.4369181901    1.0428280880    0.5354934106
C64        C    0.0401446416    0.3564663527    0.8518389032
C65        C    0.0076401123    0.3311082919    0.8264371829
C66        C    0.0141603645    0.3057458071    0.8013864847
C67        C    0.0531851460    0.3057413830    0.8017375069
C68        C    0.0856896753    0.3310994438    0.8271392272
C69        C    0.0791694231    0.3564619287    0.8521899253
H70        H   -0.0212534473    0.3311097645    0.8261755045
H71        H    0.0580118262    0.2869665566    0.7831934837
H72        H    0.1032363024    0.3752352826    0.8709956270
C73        C    0.7035010301    0.6867286666    0.1853178964
C74        C    0.6712844721    0.6616396637    0.1596710747
C75        C    0.6778519618    0.6361577011    0.1347784579
C76        C    0.7166360096    0.6357647414    0.1355326628
C77        C    0.7488525677    0.6608537443    0.1611794845
C78        C    0.7422850779    0.6863357068    0.1860721013
H79        H    0.6425691555    0.6619288003    0.1591108903
H80        H    0.7214976579    0.6169014704    0.1171056607
H81        H    0.7661387462    0.7049098412    0.2050592877
C82        C    0.6104169874    0.9527015767    0.4771509046
C83        C    0.5719553165    0.9536396629    0.4762271751
C84        C    0.5656488897    0.9793719522    0.5010496175
C85        C    0.5978041337    1.0041661553    0.5267957895
C86        C    0.6362658046    1.0032280691    0.5277195190
C87        C    0.6425722314    0.9774957798    0.5028970766
H88        H    0.5481470638    0.9352838167    0.4571664246
H89        H    0.5931357398    1.0232147331    0.5451708442
H90        H    0.6710488781    0.9768030483    0.5035827723
C91        C    0.2813716915    0.2932433657    0.8048721070
C92        C    0.2428974858    0.2942129106    0.8044841174
C93        C    0.2369733033    0.3199384236    0.8295887856
C94        C    0.2695233266    0.3446943917    0.8550814433
C95        C    0.3079975323    0.3437248467    0.8554694329
C96        C    0.3139217148    0.3179993337    0.8303647647
H97        H    0.2187969650    0.2758853732    0.7856110894
H98        H    0.2651378928    0.3637379533    0.8736654185
H99        H    0.3424076694    0.3172833096    0.8306538176
C100       C    0.9447299398    0.6218049169    0.1415661716
C101       C    0.9058598778    0.6220686535    0.1410397681
C102       C    0.8993560996    0.6474822158    0.1660497995
C103       C    0.9317223834    0.6726320414    0.1915862344
C104       C    0.9705924454    0.6723683048    0.1921126379
C105       C    0.9770962236    0.6469547426    0.1671026065
H106       H    0.8818953568    0.6034494810    0.1221343206
H107       H    0.9269078982    0.6914446784    0.2101001537
H108       H    1.0058752298    0.6467612781    0.1674941347
C109       C    0.3582265583    0.3296075767    0.5178707106
C110       C    0.3256157482    0.3211097746    0.4938704196
C111       C    0.3347607922    0.3540808810    0.4699953329
C112       C    0.3765166464    0.3955497894    0.4701205374
C113       C    0.4091274565    0.4040475915    0.4941208284
C114       C    0.3999824124    0.3710764851    0.5179959150
H115       H    0.2947002838    0.2904084591    0.4937760207
H116       H    0.3832863543    0.4199569720    0.4524467720
H117       H    0.4241281690    0.3773706180    0.5357640793
C118       C    0.0233622909    0.6644254055    0.8547803783
C119       C    0.0649472696    0.7060672008    0.8546946797
C120       C    0.0737108639    0.7387287956    0.8306438961
C121       C    0.0408894796    0.7297485950    0.8066788111
C122       C   -0.0006954991    0.6881067996    0.8067645097
C123       C   -0.0094590935    0.6554452049    0.8308152933
H124       H    0.0892489086    0.7127184804    0.8724367649
H125       H    0.0473768156    0.7539266586    0.7888749843
H126       H   -0.0402480685    0.6246158616    0.8308770349
C127       C    0.6654693530    0.0203972093    0.1398376367
C128       C    0.7069981000    0.0620948845    0.1398815712
C129       C    0.7397753758    0.0710466206    0.1638835538
C130       C    0.7310239046    0.0383006816    0.1878416021
C131       C    0.6894951575   -0.0033969935    0.1877976676
C132       C    0.6567178817   -0.0123487296    0.1637956849
H133       H    0.7134800362    0.0863406769    0.1221446926
H134       H    0.7552876022    0.0449272915    0.2056093035
H135       H    0.6259722478   -0.0432211320    0.1637648620
C136       C    0.9617691082    0.6100529981    0.5186401320
C137       C    0.9867266736    0.6424083401    0.4930566001
C138       C    1.0123217038    0.6361107306    0.4680842880
C139       C    1.0129591685    0.5974577792    0.4686955078
C140       C    0.9880016031    0.5651024373    0.4942790396
C141       C    0.9624065730    0.5714000468    0.5192513518
H142       H    0.9862565130    0.6710266118    0.4926022765
H143       H    1.0319061389    0.5927959125    0.4502095105
H144       H    0.9439297632    0.5474436418    0.5381916726
C145       C    0.6267711284    0.9418022177    0.8525206638
C146       C    0.6273073782    0.9030924697    0.8531487094
C147       C    0.6529936046    0.8967959481    0.8282704289
C148       C    0.6781435812    0.9292091744    0.8027641030
C149       C    0.6776073314    0.9679189224    0.8021360574
C150       C    0.6519211050    0.9742154440    0.8270143379
H151       H    0.6086881133    0.8790932071    0.8720318735
H152       H    0.6971580605    0.9245481130    0.7843477135
H153       H    0.6515258907    1.0028757681    0.8265475632
C154       C    0.2886640097    0.2738157873    0.1816075327
C155       C    0.3139297744    0.3060734560    0.1560236679
C156       C    0.3393989267    0.2994384645    0.1311669412
C157       C    0.3396023143    0.2605458045    0.1318940794
C158       C    0.3143365496    0.2282881358    0.1574779443
C159       C    0.2888673973    0.2349231273    0.1823346709
H160       H    0.3137809964    0.3348691844    0.1554835263
H161       H    0.3584561024    0.2556341874    0.1134936454
H162       H    0.2701623872    0.2110390159    0.2012752465
O163       O    0.9512732919    0.4312617505    1.0224436256
O164       O    0.9669230308    0.5085887523    0.9594323385
O165       O    0.9694400479    0.4404357634    0.9584649012
O166       O    0.9487560848    0.4994197032    1.0234111309
O167       O    1.0151701926    0.5384750734    1.0339063298
O168       O    1.0358527233    0.4794904026    0.9689647453
O169       O    1.0333371386    0.5476441224    0.9699275374
O170       O    1.0176873997    0.4703171206    1.0329388245
Cu171     Cu    0.9530379952    0.4663630639    0.9899782316
Cu172     Cu    1.0315724352    0.5125428090    1.0023929314
C173       C    0.9821738427    0.4393879523    1.0369817840
C174       C    1.0024365878    0.5395179206    0.9553893790
C175       C    1.0056925594    0.4512634410    0.9541418161
C176       C    0.9789178710    0.5276424319    1.0382293470
O177       O    0.6182111621    0.7638316595    0.3567598271
O178       O    0.6334098061    0.8410892882    0.2938663092
O179       O    0.6359033526    0.7729186395    0.2927112028
O180       O    0.6157174274    0.8320072733    0.3579150152
O181       O    0.6822161945    0.8710557610    0.3681136020
O182       O    0.7024007218    0.8119664026    0.3029144404
O183       O    0.6999085733    0.8801377759    0.3040648960
O184       O    0.6847099293    0.8028801471    0.3669584139
Cu185     Cu    0.6197425779    0.7988989121    0.3243803873
Cu186     Cu    0.6983771575    0.8450705233    0.3364443357
C187       C    0.6492205532    0.7719646482    0.3711323093
C188       C    0.6688991822    0.8720047872    0.2896924138
C189       C    0.6721247996    0.7837274472    0.2882018487
C190       C    0.6459949358    0.8602419881    0.3726228744
O191       O    0.2805565206    0.0949596406    0.6875866607
O192       O    0.2961651895    0.1719555748    0.6242759412
O193       O    0.2984279686    0.1036603836    0.6235564810
O194       O    0.2782935700    0.1632598061    0.6883061709
O195       O    0.3447662732    0.2022230290    0.6986065664
O196       O    0.3648992610    0.1426229102    0.6338615257
O197       O    0.3626378927    0.2109187977    0.6345763367
O198       O    0.3470292238    0.1339228635    0.6978870563
Cu199     Cu    0.2822953382    0.1299038175    0.6549893202
Cu200     Cu    0.3608990751    0.1759746209    0.6671736773
C201       C    0.3114924221    0.1030885787    0.7020715665
C202       C    0.3317019912    0.2027898597    0.6200914310
C203       C    0.3346287689    0.1143512825    0.6191649881
C204       C    0.3085656444    0.1915271558    0.7029980094
O205       O    0.4687828883    0.4388841031    0.9568602737
O206       O    0.5510348132    0.5033519605    1.0205191643
O207       O    0.4767078483    0.4293961512    1.0198986607
O208       O    0.5431152743    0.5128452998    0.9574808225
O209       O    0.5121050701    0.5441474932    0.9712283821
O210       O    0.4456971186    0.4606989864    1.0336416041
O211       O    0.5200246089    0.5346541540    1.0342667239
O212       O    0.4377726840    0.4701862966    0.9706078333
Cu213     Cu    0.5127406660    0.4682629104    0.9874371798
Cu214     Cu    0.4760668312    0.5052753467    1.0036898177
C215       C    0.4411491686    0.4450295046    0.9543483112
C216       C    0.5476583286    0.5285087525    1.0367786864
C217       C    0.4514110615    0.4327418962    1.0359694143
C218       C    0.5373964357    0.5407963610    0.9551575833
O219       O    0.1755384829    0.8796872821    0.3046927990
O220       O    0.1109367927    0.7971006922    0.3681010089
O221       O    0.1849555138    0.8713691622    0.3676613788
O222       O    0.1015143635    0.8054134016    0.3051324640
O223       O    0.1327349893    0.7743804174    0.2911737459
O224       O    0.2161754010    0.8403368333    0.3536980947
O225       O    0.1421574186    0.7660677079    0.3541422908
O226       O    0.2067591087    0.8486542979    0.2907340808
Cu227     Cu    0.1403871758    0.8412239714    0.3376727214
Cu228     Cu    0.1773087257    0.8045310186    0.3211623683
C229       C    0.2006750481    0.8763479325    0.2883642952
C230       C    0.1170208533    0.7694070575    0.3704707945
C231       C    0.2128674794    0.8655803010    0.3698964991
C232       C    0.1048284221    0.7801746891    0.2889385906
O233       O    0.8430522554    0.2120955773    0.6390598290
O234       O    0.7781532633    0.1294358094    0.7023531779
O235       O    0.8521989973    0.2036795498    0.7020679207
O236       O    0.7690011210    0.1378464282    0.6393451099
O237       O    0.8002324310    0.1067919210    0.6255013105
O238       O    0.8834295883    0.1726257051    0.6882195523
O239       O    0.8093845732    0.0983813022    0.6885093785
O240       O    0.8742835654    0.1810410701    0.6252160296
Cu241     Cu    0.8077513131    0.1735976392    0.6719718316
Cu242     Cu    0.8446855155    0.1368792403    0.6555973759
C243       C    0.8682379977    0.2087562550    0.6228057233
C244       C    0.7841988310    0.1017206245    0.7047634843
C245       C    0.8800804596    0.1978618540    0.7043890828
C246       C    0.7723563690    0.1126150255    0.6231801247
O247       O    0.4333436914    0.9470757620    0.9690179859
O248       O    0.5100484371    0.9624567780    1.0325122731
O249       O    0.4418802509    0.9649293700    1.0330527022
O250       O    0.5015168426    0.9446029833    0.9684775199
O251       O    0.5406503270    1.0110735238    0.9581884728
O252       O    0.4810130507    1.0313985009    1.0227590055
O253       O    0.5491819215    1.0289273186    1.0222232259
O254       O    0.4724771758    1.0135463025    0.9587289388
Cu255     Cu    0.4681267285    0.9487009452    1.0017060789
Cu256     Cu    0.5143988844    1.0273021354    0.9895351329
C257       C    0.4416006971    0.9780441500    0.9545116869
C258       C    0.5409249158    0.9979589305    1.0367295249
C259       C    0.4526508093    1.0011574005    1.0374241362
C260       C    0.5298748036    0.9748456801    0.9538170756
O261       O    0.2079366803    0.3462273332    0.2908330751
O262       O    0.1493319029    0.3667375756    0.3562586169
O263       O    0.2174914971    0.3642163547    0.3548281951
O264       O    0.1397721221    0.3487487452    0.2922636015
O265       O    0.1007834864    0.2823039478    0.3026596659
O266       O    0.1785022274    0.2977703549    0.3652195791
O267       O    0.1103432672    0.3002927781    0.3666546814
O268       O    0.1689480446    0.2797825358    0.3012291395
Cu269     Cu    0.1821909813    0.3625465646    0.3225991995
Cu270     Cu    0.1360889662    0.2839735468    0.3348885569
C271       C    0.1970834274    0.3099799818    0.2863848343
C272       C    0.1211965200    0.3365401296    0.3711029221
C273       C    0.2094579481    0.3332756206    0.3692448805
C274       C    0.1088219994    0.3132444908    0.2882428759
O275       O    0.8148518437    0.6971095104    0.6900261426
O276       O    0.8746734985    0.6771510517    0.6253719157
O277       O    0.8062645769    0.6792143532    0.6259982195
O278       O    0.8832657556    0.6950460651    0.6893997905
O279       O    0.8444151762    0.6285737365    0.6997132799
O280       O    0.7674146880    0.6127434372    0.6363163580
O281       O    0.8358229191    0.6106787232    0.6356854051
O282       O    0.7760012643    0.6306371818    0.7003396319
Cu283     Cu    0.8483093099    0.6931956641    0.6567558227
Cu284     Cu    0.8023654529    0.6145925695    0.6689557249
C285       C    0.7866050428    0.6668151862    0.7047156999
C286       C    0.8640697201    0.6409730473    0.6209958477
C287       C    0.7754874690    0.6436481976    0.6218120605
C288       C    0.8751872938    0.6641400360    0.7038994872
C289       C   -0.0459809521    0.4460986956    0.4961394668
C290       C   -0.0042309935    0.4515964825    0.4978797320
C291       C    0.0354320278    0.4948754813    0.4985741751
C292       C    0.0333450905    0.5326566931    0.4975283531
C293       C   -0.0084048682    0.5271589061    0.4957880878
C294       C   -0.0480678895    0.4838799074    0.4950936447
H295       H   -0.0753418899    0.4140609952    0.4956253985
H296       H    0.0663364540    0.4989462934    0.4998623352
H297       H    0.0627060283    0.5646943935    0.4980424213
H298       H   -0.0789723157    0.4798090953    0.4938054846
C299       C    0.0338079380    0.3152084449    0.4387435590
C300       C    0.0481596561    0.3593422249    0.4481737006
C301       C    0.0863646753    0.3957207662    0.4319344661
C302       C    0.1102179764    0.3879655276    0.4062650899
C303       C    0.0958662583    0.3438317476    0.3968349483
C304       C    0.0576612391    0.3074532062    0.4130741829
H305       H    0.0055263004    0.2882788753    0.4507648106
H306       H    0.0969889751    0.4283895846    0.4389141094
H307       H    0.1384996140    0.4148950972    0.3942438384
H308       H    0.0470369394    0.2747843878    0.4060945395
C309       C   -0.0674611920    0.3194854323    0.5798506111
C310       C   -0.0523227193    0.3088334820    0.5493127958
C311       C   -0.0634346569    0.2649856605    0.5435153063
C312       C   -0.0896850672    0.2317897893    0.5682556322
C313       C   -0.1048235399    0.2424417396    0.5987934475
C314       C   -0.0937116023    0.2862895611    0.6045909369
H315       H   -0.0592354719    0.3519442092    0.5841422591
H316       H   -0.0522295648    0.2570997371    0.5209111405
H317       H   -0.0979107873    0.1993310124    0.5639639841
H318       H   -0.1049166944    0.2941754845    0.6271951028
C319       C    0.6213436961    0.6522851498    0.9174368396
C320       C    0.6149621974    0.6417137170    0.8816242605
C321       C    0.5825451706    0.5976808035    0.8704177400
C322       C    0.5565096424    0.5642193229    0.8950237985
C323       C    0.5628911411    0.5747907558    0.9308363776
C324       C    0.5953081679    0.6188236692    0.9420428981
H325       H    0.6453407159    0.6848809428    0.9257325755
H326       H    0.5778205821    0.5898544730    0.8439090416
H327       H    0.5325126226    0.5316235299    0.8867280626
H328       H    0.6000327564    0.6266499997    0.9685515965
C329       C    0.7079520100    0.6936894935    0.7456249957
C330       C    0.7148606400    0.6920044687    0.7811779924
C331       C    0.7455256190    0.6821243901    0.7912875891
C332       C    0.7692819682    0.6739293365    0.7658441890
C333       C    0.7623733382    0.6756143613    0.7302911922
C334       C    0.7317083591    0.6854944399    0.7201815955
H335       H    0.6852519605    0.7010033179    0.7381412683
H336       H    0.7506403328    0.6808768281    0.8176041109
H337       H    0.7919820176    0.6666155121    0.7733279164
H338       H    0.7265936453    0.6867420020    0.6938650738
C339       C    0.7016192949    0.8278032534    0.8313901685
C340       C    0.6621059064    0.7844103034    0.8308691234
C341       C    0.6201909433    0.7786257808    0.8295449260
C342       C    0.6177893688    0.8162342082    0.8287417736
C343       C    0.6573027573    0.8596271582    0.8292628187
C344       C    0.6992177203    0.8654116808    0.8305870161
H345       H    0.7326472545    0.8320853026    0.8323704185
H346       H    0.5909419471    0.7465062904    0.8291592083
H347       H    0.5867614091    0.8119521590    0.8277615236
H348       H    0.7284667165    0.8975311713    0.8309727338
C349       C    0.2651912327   -0.0131641758    0.2451982525
C350       C    0.2801916599   -0.0239540294    0.2146525396
C351       C    0.2689639182   -0.0678509032    0.2089130235
C352       C    0.2427357494   -0.1009579234    0.2337192203
C353       C    0.2277353223   -0.0901680698    0.2642649332
C354       C    0.2389630639   -0.0462711960    0.2700044493
H355       H    0.2735026779    0.0193309126    0.2494469852
H356       H    0.2800668257   -0.0758389037    0.1863030137
H357       H    0.2344243043   -0.1334530118    0.2294704876
H358       H    0.2278601564   -0.0382831955    0.2926144590
C359       C    0.3239399898    0.1380068955    0.1933904611
C360       C    0.3263229280    0.1174151728    0.1623831754
C361       C    0.3256792135    0.1340094392    0.1299774030
C362       C    0.3226525610    0.1711954284    0.1285789164
C363       C    0.3202696229    0.1917871512    0.1595862021
C364       C    0.3209133373    0.1751928847    0.1919919745
H365       H    0.3244165057    0.1257228282    0.2173791497
H366       H    0.3274430355    0.1187680444    0.1070248948
H367       H    0.3221760451    0.1834794958    0.1045902278
H368       H    0.3191495153    0.1904342796    0.2149444827
C369       C    0.4061495288    0.0095197108    0.1237279446
C370       C    0.3804892651    0.0256835077    0.1139238668
C371       C    0.3786531433    0.0337430179    0.0786762251
C372       C    0.4024772852    0.0256387312    0.0532326612
C373       C    0.4281375490    0.0094749343    0.0630367390
C374       C    0.4299736708    0.0014154241    0.0982843807
H375       H    0.4075087359    0.0035535799    0.1498203547
H376       H    0.3596594491    0.0457076580    0.0714181661
H377       H    0.4011180782    0.0316048621    0.0271402511
H378       H    0.4489673650   -0.0105492160    0.1055424397
C379       C    0.5146907276    0.5084646115    0.4633162400
C380       C    0.5344287506    0.5297536686    0.4951940753
C381       C    0.5125669548    0.5094135637    0.5267734777
C382       C    0.4709671361    0.4677844017    0.5264750447
C383       C    0.4512291132    0.4464953446    0.4945972094
C384       C    0.4730909090    0.4668354495    0.4630178071
H385       H    0.5308741349    0.5235215723    0.4399392799
H386       H    0.5271762773    0.5251710044    0.5503703375
H387       H    0.4547837288    0.4527274409    0.5498520049
H388       H    0.4584815864    0.4510780088    0.4394209473
C389       C    0.5963305179    0.6835466539    0.4401855510
C390       C    0.6306779927    0.6769803032    0.4455331112
C391       C    0.6710970191    0.7014338124    0.4262536314
C392       C    0.6771685707    0.7324536722    0.4016265914
C393       C    0.6428210959    0.7390200229    0.3962790311
C394       C    0.6024020695    0.7145665138    0.4155585109
H395       H    0.5664099400    0.6654447055    0.4544573737
H396       H    0.6965221770    0.6965741968    0.4302112664
H397       H    0.7070891486    0.7505556206    0.3873547687
H398       H    0.5769769116    0.7194261293    0.4116008760
C399       C    0.6743566123    0.6320195442    0.5820435449
C400       C    0.6812891153    0.6259098841    0.5466297924
C401       C    0.7189945192    0.6257784703    0.5360452913
C402       C    0.7497674202    0.6317567166    0.5608745427
C403       C    0.7428349172    0.6378663768    0.5962882952
C404       C    0.7051295133    0.6379977906    0.6068727963
H405       H    0.6464448198    0.6321168246    0.5898788250
H406       H    0.7241271265    0.6212561174    0.5098318225
H407       H    0.7776792127    0.6316594363    0.5530392627
H408       H    0.6999969059    0.6425201435    0.6330862651
C409       C    0.3369683219    1.0363225069    0.7591003405
C410       C    0.2961763423    1.0106402211    0.7777424573
C411       C    0.2608189700    1.0153793700    0.7714441754
C412       C    0.2662535772    1.0458008047    0.7465037768
C413       C    0.3070455568    1.0714830905    0.7278616601
C414       C    0.3424029291    1.0667439417    0.7341599419
H415       H    0.3631419612    1.0328143058    0.7637627050
H416       H    0.2306237727    0.9963695833    0.7852428046
H417       H    0.2400799380    1.0493090058    0.7418414123
H418       H    0.3725981264    1.0857537284    0.7203613127
C419       C    0.3430917129    0.9229280960    0.8942977105
C420       C    0.3477282824    0.9604760034    0.8794390506
C421       C    0.3830721602    1.0039126344    0.8894358940
C422       C    0.4137794686    1.0098013580    0.9142913974
C423       C    0.4091428991    0.9722534507    0.9291500573
C424       C    0.3737990212    0.9288168197    0.9191532139
H425       H    0.3169280630    0.8907737069    0.8868974498
H426       H    0.3865052510    1.0317068366    0.8784378831
H427       H    0.4399431184    1.0419557472    0.9216916581
H428       H    0.3703659304    0.9010226175    0.9301512248
C429       C    0.1984112305    0.8241792140    0.8297135053
C430       C    0.2003400927    0.8642573942    0.8293930843
C431       C    0.1605258876    0.8628515339    0.8294043240
C432       C    0.1187828204    0.8213674934    0.8297359847
C433       C    0.1168539583    0.7812893132    0.8300564057
C434       C    0.1566681633    0.7826951735    0.8300451660
H435       H    0.2278840836    0.8252199158    0.8297051850
H436       H    0.1619523645    0.8925172159    0.8291671499
H437       H    0.0893099673    0.8203267916    0.8297443050
H438       H    0.1552416864    0.7530294915    0.8302823401
C439       C    0.9815138808    0.3895552736    0.1224056987
C440       C    0.9627107018    0.3445325824    0.1125093259
C441       C    0.9502226086    0.3304340170    0.0777909732
C442       C    0.9565376943    0.3613581428    0.0529689934
C443       C    0.9753408732    0.4063808340    0.0628653663
C444       C    0.9878289665    0.4204793994    0.0975837189
H445       H    0.9907583134    0.3999918740    0.1481062975
H446       H    0.9363041671    0.2971079348    0.0704646145
H447       H    0.9472932616    0.3509215424    0.0272683947
H448       H    1.0017474079    0.4538054816    0.1049100777
C449       C    1.0512486062    0.2941330610    0.2028253269
C450       C    1.0134268781    0.2938907556    0.2137252868
C451       C    1.0067533226    0.2999265409    0.2492120480
C452       C    1.0379014951    0.3062046316    0.2737988493
C453       C    1.0757232232    0.3064469370    0.2628988894
C454       C    1.0823967788    0.3004111517    0.2274121282
H455       H    1.0561887707    0.2896650122    0.1765559062
H456       H    0.9787576026    0.2997473783    0.2572812826
H457       H    1.0329613306    0.3106726804    0.3000682700
H458       H    1.1103924987    0.3005903142    0.2193428936
C459       C    0.8639696619    0.1569058674    0.1636474293
C460       C    0.8655961089    0.1968352389    0.1635872677
C461       C    0.8256237553    0.1951318015    0.1635898343
C462       C    0.7840249547    0.1534989926    0.1636525625
C463       C    0.7823985077    0.1135696211    0.1637127241
C464       C    0.8223708613    0.1152730585    0.1637101575
H465       H    0.8935595860    0.1581668535    0.1636455294
H466       H    0.8268263806    0.2246873264    0.1635453030
H467       H    0.7544350305    0.1522380064    0.1636544624
H468       H    0.8211682360    0.0857175335    0.1637546888
C469       C    0.3055326176    0.9666895159    0.4158328948
C470       C    0.3142571496    0.9464169426    0.4420511869
C471       C    0.2893839153    0.8994364940    0.4439193194
C472       C    0.2557861489    0.8727286187    0.4195691598
C473       C    0.2470616169    0.8930011920    0.3933508677
C474       C    0.2719348512    0.9399816406    0.3914827353
H475       H    0.3239452716    1.0014672505    0.4144499916
H476       H    0.2958409958    0.8844293205    0.4633260651
H477       H    0.2373734949    0.8379508841    0.4209520631
H478       H    0.2654777708    0.9549888141    0.3720759896
C479       C    0.4965128701    1.0238785209    0.4774720469
C480       C    0.4557948336    0.9925259082    0.4943756800
C481       C    0.4519269169    0.9576720252    0.5131670087
C482       C    0.4887770367    0.9541707550    0.5150547043
C483       C    0.5294950731    0.9855233677    0.4981510712
C484       C    0.5333629898    1.0203772507    0.4793597425
H485       H    0.4993761331    1.0496794473    0.4635615829
H486       H    0.4217874486    0.9344638297    0.5256796125
H487       H    0.4859137736    0.9283698286    0.5289651683
H488       H    0.5635024581    1.0435854462    0.4668471387
C489       C    0.3982508381    1.0805223583    0.5621266054
C490       C    0.3631687075    1.0459625160    0.5421010648
C491       C    0.3191405996    1.0344235205    0.5476795133
C492       C    0.3101946223    1.0574443674    0.5732835025
C493       C    0.3452767529    1.0920042097    0.5933090431
C494       C    0.3893048608    1.1035432052    0.5877305946
H495       H    0.4308430738    1.0890642120    0.5579971046
H496       H    0.2931715378    1.0088420829    0.5328568558
H497       H    0.2776023866    1.0489025136    0.5774130034
H498       H    0.4152739226    1.1291246428    0.6025532521
C499       C   -0.0133936179    0.3685892974    0.8834373128
C500       C    0.0302357365    0.3789617990    0.8779852727
C501       C    0.0657010678    0.4131159989    0.8979742240
C502       C    0.0575370445    0.4368976972    0.9234152155
C503       C    0.0139076900    0.4265251956    0.9288672556
C504       C   -0.0215576412    0.3923709957    0.9088783043
H505       H   -0.0396471748    0.3433063182    0.8686402969
H506       H    0.0979964832    0.4207947686    0.8939392759
H507       H    0.0837906014    0.4621806764    0.9382122314
H508       H   -0.0538530567    0.3846922260    0.9129132524
C509       C    0.1198551323    0.2899248417    0.8423023698
C510       C    0.1231957571    0.3270445507    0.8278548247
C511       C    0.1643966378    0.3621560923    0.8139349423
C512       C    0.2022568938    0.3601479249    0.8144626051
C513       C    0.1989162690    0.3230282158    0.8289101503
C514       C    0.1577153883    0.2879166742    0.8428300327
H515       H    0.0893557790    0.2639331810    0.8526066983
H516       H    0.1668706603    0.3896330802    0.8032404802
H517       H    0.2327562470    0.3861395855    0.8041582766
H518       H    0.1552413658    0.2604396864    0.8535244948
C519       C   -0.0092063418    0.2846674271    0.7418799906
C520       C   -0.0197331778    0.2781335264    0.7776918221
C521       C   -0.0635408562    0.2450491922    0.7888949721
C522       C   -0.0968216986    0.2184987587    0.7642862907
C523       C   -0.0862948627    0.2250326593    0.7284744593
C524       C   -0.0424871843    0.2581169935    0.7172713093
H525       H    0.0232227188    0.3091584277    0.7335867497
H526       H   -0.0713341691    0.2402117752    0.8154031170
H527       H   -0.1292507592    0.1940077581    0.7725795316
H528       H   -0.0346938714    0.2629544105    0.6907631644
C529       C    0.8298213918    0.6961495046    0.1630369802
C530       C    0.7865004797    0.6565473009    0.1624858160
C531       C    0.7808266160    0.6146303764    0.1629495821
C532       C    0.8184736644    0.6123156555    0.1639645125
C533       C    0.8617945765    0.6519178592    0.1645156767
C534       C    0.8674684402    0.6938347837    0.1640519105
H535       H    0.8340215247    0.7271789162    0.1626936728
H536       H    0.7487604512    0.5853156395    0.1625416270
H537       H    0.8142735315    0.5812862439    0.1643078199
H538       H    0.8995346049    0.7231495206    0.1644598656
C539       C    0.6197168518    0.6233357767    0.0975300335
C540       C    0.6453160596    0.6088605298    0.1109262082
C541       C    0.6381999679    0.5679178812    0.0993136506
C542       C    0.6054846684    0.5414504795    0.0743049183
C543       C    0.5798854606    0.5559257264    0.0609087436
C544       C    0.5870015523    0.5968683750    0.0725213012
H545       H    0.6249846080    0.6536439711    0.1061263423
H546       H    0.6571481854    0.5572020592    0.1092290840
H547       H    0.6002169123    0.5111422851    0.0657086094
H548       H    0.5680533349    0.6075841970    0.0626058678
C549       C    0.6553133565    0.7093140600    0.2112584919
C550       C    0.6946387486    0.7098688627    0.2118452187
C551       C    0.7263136866    0.7345317088    0.2379271961
C552       C    0.7186632325    0.7586397521    0.2634224467
C553       C    0.6793378404    0.7580849494    0.2628357199
C554       C    0.6476629024    0.7334221033    0.2367537425
H555       H    0.6318656751    0.6910571479    0.1919510541
H556       H    0.7554232045    0.7349431523    0.2383623146
H557       H    0.7421109139    0.7768966641    0.2827298844
H558       H    0.6185533845    0.7330106598    0.2363186240
C559       C    0.6654915156    1.0583634082    0.5751247334
C560       C    0.6710320756    1.0317054174    0.5507273837
C561       C    0.7100867658    1.0317256885    0.5507459358
C562       C    0.7436008960    1.0584039504    0.5751618375
C563       C    0.7380603360    1.0850619413    0.5995591871
C564       C    0.6990056458    1.0850416702    0.5995406351
H565       H    0.6365809008    1.0583484023    0.5751110000
H566       H    0.7141891046    1.0119935391    0.5326871049
H567       H    0.7725115108    1.0584189563    0.5751755709
H568       H    0.6949033070    1.1047738196    0.6175994659
C569       C    0.6189104550    0.9382918280    0.4145936751
C570       C    0.6207399491    0.9310874333    0.4500535971
C571       C    0.6308052619    0.9004343930    0.4597999068
C572       C    0.6390410806    0.8769857475    0.4340862946
C573       C    0.6372115865    0.8841901422    0.3986263726
C574       C    0.6271462737    0.9148431825    0.3888800629
H575       H    0.6114595091    0.9609830397    0.4073788744
H576       H    0.6321597655    0.8951007555    0.4860475235
H577       H    0.6464920265    0.8542945358    0.4413010953
H578       H    0.6257917701    0.9201768200    0.3626324463
C579       C    0.3749392213    0.3616892393    0.8847774124
C580       C    0.3413649111    0.3694856238    0.8798271319
C581       C    0.3408710186    0.4026336600    0.8998940784
C582       C    0.3739514363    0.4279853119    0.9249113056
C583       C    0.4075257465    0.4201889275    0.9298615861
C584       C    0.4080196390    0.3870408912    0.9097946396
H585       H    0.3753048300    0.3371510826    0.8699226597
H586       H    0.3160194179    0.4084055651    0.8962305334
H587       H    0.3735858276    0.4525234686    0.9397660583
H588       H    0.4328712397    0.3812689861    0.9134581846
C589       C    0.3231144070    0.2909331103    0.7530445028
C590       C    0.2894240499    0.2686864187    0.7788264566
C591       C    0.2626428008    0.2215832946    0.7793229640
C592       C    0.2695519088    0.1967268620    0.7540375177
C593       C    0.3032422659    0.2189735536    0.7282555639
C594       C    0.3300235150    0.2660766777    0.7277590565
H595       H    0.3429394875    0.3258016567    0.7526769583
H596       H    0.2377044707    0.2051148819    0.7984066903
H597       H    0.2497268283    0.1618583156    0.7544050622
H598       H    0.3549618451    0.2825450905    0.7086753302
C599       C    0.9939885352    0.6002524609    0.1158517616
C600       C    0.9545767557    0.5995186734    0.1150592531
C601       C    0.9232821073    0.5751046713    0.0886915374
C602       C    0.9313992384    0.5514244568    0.0631163301
C603       C    0.9708110179    0.5521582444    0.0639088385
C604       C    1.0021056663    0.5765722465    0.0902765543
H605       H    1.0171547035    0.6183251638    0.1353707200
H606       H    0.8941086578    0.5745607517    0.0881040910
H607       H    0.9082330701    0.5333517540    0.0435973717
H608       H    1.0312791158    0.5771161661    0.0908640006
C609       C    1.0028560180    0.7323442662    0.2359318290
C610       C    1.0046646887    0.7001168186    0.2156146001
C611       C    1.0397893261    0.6944155357    0.2198879466
C612       C    1.0731052928    0.7209417004    0.2444785219
C613       C    1.0712966221    0.7531691481    0.2647957508
C614       C    1.0361719847    0.7588704310    0.2605224043
H615       H    0.9768546631    0.7365646964    0.2327684427
H616       H    1.0411292093    0.6705607131    0.2048493412
H617       H    1.0991066478    0.7167212702    0.2476419082
H618       H    1.0348321015    0.7827252536    0.2755610097
C619       C    0.3544110680    0.3090509892    0.5806153110
C620       C    0.3534360706    0.2987561607    0.5448631552
C621       C    0.3456631873    0.2573280938    0.5339246690
C622       C    0.3388653013    0.2261948554    0.5587383385
C623       C    0.3398402987    0.2364896839    0.5944904942
C624       C    0.3476131820    0.2779177508    0.6054289805
H625       H    0.3601650206    0.3397185192    0.5887126320
H626       H    0.3449412517    0.2497065873    0.5074607042
H627       H    0.3331113487    0.1955273254    0.5506410175
H628       H    0.3483351176    0.2855392573    0.6318929452
C629       C    0.3138546883    0.3512426572    0.4079160907
C630       C    0.3040405249    0.3506204083    0.4437363470
C631       C    0.2632546209    0.3441500260    0.4549775600
C632       C    0.2322828803    0.3383018927    0.4303985168
C633       C    0.2420970438    0.3389241416    0.3945782605
C634       C    0.2828829477    0.3453945238    0.3833370475
H635       H    0.3440468510    0.3560324206    0.3995946732
H636       H    0.2559889213    0.3436892349    0.4814919422
H637       H    0.2020907177    0.3335121293    0.4387199343
H638       H    0.2901486474    0.3458553150    0.3568226653
C639       C    0.0134281193    0.5931356810    0.8698482444
C640       C    0.0200281872    0.6340068410    0.8809958650
C641       C    0.0206953466    0.6439424617    0.9167948848
C642       C    0.0147624381    0.6130069224    0.9414462840
C643       C    0.0081623702    0.5721357624    0.9302986634
C644       C    0.0074952108    0.5622001417    0.8944996436
H645       H    0.0129342480    0.5857807410    0.8433476713
H646       H    0.0255807146    0.6741954636    0.9250474470
H647       H    0.0152563094    0.6203618624    0.9679468571
H648       H    0.0026098429    0.5319471399    0.8862470814
C649       C   -0.0162653346    0.6970942130    0.7451429452
C650       C   -0.0307220250    0.6839596628    0.7797087757
C651       C   -0.0759700590    0.6643935804    0.7892777597
C652       C   -0.1067614025    0.6579620483    0.7642809131
C653       C   -0.0923047121    0.6710965985    0.7297150826
C654       C   -0.0470566782    0.6906626809    0.7201460986
H655       H    0.0172299632    0.7115781961    0.7380594116
H656       H   -0.0866722818    0.6546708138    0.8148635674
H657       H   -0.1402567004    0.6434780652    0.7713644467
H658       H   -0.0363544554    0.7003854475    0.6945602909
C659       C    0.6457562126   -0.0586989313    0.2335958392
C660       C    0.6863170104   -0.0337789079    0.2145493283
C661       C    0.7210578618   -0.0396562417    0.2202418976
C662       C    0.7152379154   -0.0704535989    0.2449809778
C663       C    0.6746771177   -0.0953736224    0.2640274886
C664       C    0.6399362663   -0.0894962886    0.2583349193
H665       H    0.6200389589   -0.0543481777    0.2293818593
H666       H    0.7510819196   -0.0212107149    0.2061439182
H667       H    0.7409551691   -0.0748043525    0.2491949577
H668       H    0.6099122084   -0.1079418153    0.2724328987
C669       C    0.5973178755    0.0166657011    0.1230111916
C670       C    0.6351925794    0.0167531721    0.1125946000
C671       C    0.6423594752    0.0107064042    0.0772212890
C672       C    0.6116516671    0.0045721655    0.0522645696
C673       C    0.5737769632    0.0044846946    0.0626811611
C674       C    0.5666100674    0.0105314624    0.0980544721
H675       H    0.5920125111    0.0211418799    0.1491966296
H676       H    0.6703944232    0.0107709585    0.0695098455
H677       H    0.6169570315    0.0000959867    0.0260791316
H678       H    0.5385751194    0.0104669081    0.1057659156
C679       C    1.0213931169    0.6910448942    0.4282370629
C680       C    1.0389472175    0.6696682746    0.4442606203
C681       C    1.0824415133    0.6814380500    0.4354381930
C682       C    1.1083817085    0.7145844452    0.4105922082
C683       C    1.0908276079    0.7359610649    0.3945686508
C684       C    1.0473333120    0.7241912894    0.4033910781
H685       H    0.9891960407    0.6823322033    0.4347679506
H686       H    1.0954363727    0.6656155246    0.4472984941
H687       H    1.1405787846    0.7232971361    0.4040613205
H688       H    1.0343384527    0.7400138148    0.3915307770
C689       C    0.9070436529    0.6278757264    0.5346469005
C690       C    0.9383654645    0.6189178916    0.5448321184
C691       C    0.9453755324    0.6174832582    0.5804036013
C692       C    0.9210637887    0.6250064595    0.6057898663
C693       C    0.8897419771    0.6339642942    0.5956046483
C694       C    0.8827319092    0.6353989277    0.5600331654
H695       H    0.9018543819    0.6289377278    0.5083147638
H696       H    0.9685600479    0.6108526554    0.5879437892
H697       H    0.9262530597    0.6239444581    0.6321220030
H698       H    0.8595473937    0.6420295305    0.5524929775
C699       C    0.5640052199    0.9470945246    0.8693399027
C700       C    0.6037359726    0.9513726724    0.8784141451
C701       C    0.6192597830    0.9635342375    0.9127140490
C702       C    0.5950528408    0.9714176546    0.9379397106
C703       C    0.5553220881    0.9671395068    0.9288654683
C704       C    0.5397982777    0.9549779417    0.8945655643
H705       H    0.5525135680    0.9380918076    0.8439490647
H706       H    0.6486688362    0.9667012922    0.9194318565
H707       H    0.6065444927    0.9804203716    0.9633305486
H708       H    0.5103892245    0.9518108870    0.8878477568
C709       C    0.6981247807    0.9908956941    0.7425315207
C710       C    0.7047786562    1.0016695601    0.7783030648
C711       C    0.7376762511    1.0456304041    0.7893266153
C712       C    0.7639199706    1.0788173822    0.7645786217
C713       C    0.7572660951    1.0680435162    0.7288070776
C714       C    0.7243685001    1.0240826721    0.7177835270
H715       H    0.6737720156    0.9583532511    0.7343712300
H716       H    0.7426024673    1.0536065727    0.8158049341
H717       H    0.7882727356    1.1113598252    0.7727389124
H718       H    0.7194422840    1.0161065036    0.6913052083
C719       C    0.3522562382    0.3556456666    0.0918137754
C720       C    0.3683047585    0.3331674373    0.1083137652
C721       C    0.4116638582    0.3439563356    0.1003942485
C722       C    0.4389744376    0.3772234631    0.0759747420
C723       C    0.4229259173    0.3997016924    0.0594747523
C724       C    0.3795668175    0.3889127941    0.0673942689
H725       H    0.3201592423    0.3476590795    0.0976762748
H726       H    0.4235442882    0.3273183717    0.1126072316
H727       H    0.4710714335    0.3852100502    0.0701122427
H728       H    0.3676863876    0.4055507580    0.0551812858
C729       C    0.2244366377    0.2742546550    0.2020346306
C730       C    0.2672397105    0.2841476709    0.2087876012
C731       C    0.2868027499    0.3024493394    0.2413296067
C732       C    0.2635627166    0.3108579919    0.2671186415
C733       C    0.2207596438    0.3009649760    0.2603656709
C734       C    0.2011966044    0.2826633075    0.2278236654
H735       H    0.2099549072    0.2607066666    0.1779450941
H736       H    0.3184860513    0.3097726938    0.2463291615
H737       H    0.2780444471    0.3244059803    0.2912081781
H738       H    0.1695133029    0.2753399531    0.2228241107
loop_
_geom_bond_atom_site_label_1
_geom_bond_atom_site_label_2
_geom_bond_distance
_geom_bond_site_symmetry_2
_ccdc_geom_bond_type
C511       H516 1.140       .   S
C512       H517 1.140       .   S
C509       H515 1.140       .   S
C514       H518 1.140       .   S
C694       H698 1.140       .   S
C689       H695 1.140       .   S
C692       H697 1.140       .   S
C691       H696 1.140       .   S
C562       H567 1.140       .   S
C562       C563 1.540       .   A
C561       C562 1.540       .   A
C563       C564 1.540       .   A
C563       C246 1.540   1_565   S
C560        C86 1.540       .   S
C560       C561 1.540       .   A
C559       C560 1.540       .   A
C561       H566 1.140       .   S
O238      Cu242 1.951       .   S
O238       C245 1.251       .   A
O239      Cu242 1.951       .   S
O239       C244 1.250       .   A
O236       C246 1.250       .   A
O236      Cu241 1.951       .   S
O237      Cu242 1.951       .   S
O237       C246 1.250       .   A
O234      Cu241 1.951       .   S
O234       C244 1.250       .   A
O235       C245 1.250       .   A
O235      Cu241 1.951       .   S
O233       C243 1.250       .   A
O233      Cu241 1.951       .   S
C245       C523 1.536   1_655   S
C244       C713 1.535   1_545   S
C344       H348 1.140       .   S
C461       H466 1.140       .   S
C462       H467 1.140       .   S
C459       H465 1.140       .   S
C373       C259 1.568   1_544   S
C373       C374 1.540       .   A
C372       C373 1.540       .   A
C464       H468 1.140       .   S
C342       H347 1.140       .   S
C341       H346 1.140       .   S
C339       H345 1.140       .   S
C371       H376 1.140       .   S
C371       C372 1.540       .   A
C370       C371 1.540       .   A
C370        C19 1.568       .   S
C369       C370 1.540       .   A
C479       C480 1.540       .   A
C479       C484 1.540       .   A
C479       H485 1.140       .   S
C610       C611 1.540       .   A
C611       C612 1.540       .   A
C611       H616 1.140       .   S
O278      Cu283 1.951       .   S
Cu283     Cu284 2.630       .   S
O276      Cu283 1.951       .   S
O277      Cu283 1.951       .   S
O275      Cu283 1.951       .   S
O282      Cu284 1.951       .   S
O281      Cu284 1.951       .   S
O279      Cu284 1.951       .   S
O280      Cu284 1.951       .   S
O163       C173 1.250       .   A
O163      Cu171 1.951       .   S
O166      Cu171 1.951       .   S
O166       C176 1.250       .   A
O167       C176 1.250       .   A
O167      Cu172 1.951       .   S
O164      Cu171 1.951       .   S
O164       C174 1.250       .   A
O165       C175 1.250       .   A
O165      Cu171 1.951       .   S
O168       C175 1.251       .   A
O168      Cu172 1.951       .   S
O169       C174 1.250       .   A
O169      Cu172 1.951       .   S
C669       C670 1.540       .   A
C669       H675 1.140       .   S
C669       C674 1.540       .   A
C482       C483 1.540       .   A
C483        C84 1.584       .   S
C483       C484 1.540       .   A
O223       C232 1.250       .   A
O222       C232 1.250       .   A
C613       C232 1.535   1_655   S
C481       C482 1.540       .   A
C482       H487 1.140       .   S
C230       C683 1.526   1_455   S
O220       C230 1.250       .   A
O225       C230 1.250       .   A
C484       H488 1.140       .   S
O266      Cu270 1.951       .   S
O266       C273 1.251       .   A
C612       H617 1.140       .   S
C612       C613 1.540       .   A
C690       C691 1.540       .   A
C691       C692 1.540       .   A
C15         H18 1.140       .   S
C46         C47 1.540       .   A
C46         C51 1.540       .   A
C46        C440 1.626       .   S
C47         C48 1.540       .   A
C47         H52 1.140       .   S
C40         H44 1.140       .   S
C39         C40 1.540       .   A
C40         C41 1.540       .   A
C41         C42 1.540       .   A
C41        C410 1.616       .   S
C42         H45 1.140       .   S
C37         C42 1.540       .   A
C641       H646 1.140       .   S
C642       H647 1.140       .   S
C639       H645 1.140       .   S
C48         C49 1.540       .   A
C460        C48 1.575       .   S
C49         H53 1.140       .   S
C49         C50 1.540       .   A
C11         H16 1.140       .   S
C13         H17 1.140       .   S
C592       C593 1.540       .   A
C593       C204 1.582       .   S
C593       C594 1.540       .   A
C592       H597 1.140       .   S
C591       C592 1.540       .   A
C591       H596 1.140       .   S
C590       C591 1.540       .   A
C590        C91 1.576       .   S
C589       C590 1.540       .   A
C589       C594 1.540       .   A
C594       H598 1.140       .   S
O210      Cu214 1.951       .   S
O211      Cu214 1.951       .   S
O209      Cu214 1.951       .   S
O212      Cu214 1.951       .   S
Cu213     Cu214 2.630       .   S
C599       C600 1.540       .   A
C599       H605 1.140       .   S
C599       C604 1.540       .   A
O208      Cu213 1.951       .   S
O207      Cu213 1.951       .   S
O206      Cu213 1.951       .   S
O205      Cu213 1.951       .   S
C289       H295 1.140       .   S
C292       H297 1.140       .   S
C291       H296 1.140       .   S
C294       H298 1.140       .   S
C112       H116 1.140       .   S
C114       H117 1.140       .   S
C110       H115 1.140       .   S
C699       C700 1.540       .   A
C699       H705 1.140       .   S
C699       C704 1.540       .   A
C349       C354 1.540       .   A
C349       C350 1.540       .   A
C349       H355 1.140       .   S
C609       C614 1.540       .   A
C613       C614 1.540       .   A
C614       H618 1.140       .   S
C693       C286 1.568       .   S
C692       C693 1.540       .   A
C693       C694 1.540       .   A
C342       C343 1.540       .   A
C341       C342 1.540       .   A
C343       C344 1.540       .   A
C343       C147 1.570       .   S
C340        C12 1.570       .   S
C339       C340 1.540       .   A
C340       C341 1.540       .   A
C689       C694 1.540       .   A
C339       C344 1.540       .   A
C643       C644 1.540       .   A
C644       H648 1.140       .   S
C639       C644 1.540       .   A
C492       H497 1.140       .   S
C491       H496 1.140       .   S
C489       H495 1.140       .   S
C494       H498 1.140       .   S
C642       C643 1.540       .   A
C641       C642 1.540       .   A
C519       C524 1.540       .   A
C524       H528 1.140       .   S
C523       C524 1.540       .   A
C522       H527 1.140       .   S
C522       C523 1.540       .   A
C521       C522 1.540       .   A
C289       C294 1.540       .   A
C289       C290 1.540       .   A
O278       C288 1.250       .   A
O279       C288 1.250       .   A
C288       C653 1.607   1_655   S
C287       C403 1.617       .   S
O280       C287 1.251       .   A
O277       C287 1.250       .   A
O281       C286 1.250       .   A
O276       C286 1.250       .   A
C285       C333 1.570       .   S
O282       C285 1.250       .   A
O275       C285 1.250       .   A
C529       C530 1.540       .   A
C529       C534 1.540       .   A
C529       H535 1.140       .   S
C449       C450 1.540       .   A
C449       H455 1.140       .   S
C449       C454 1.540       .   A
C439       C440 1.540       .   A
C440       C441 1.540       .   A
C119       C120 1.540       .   A
C119       H124 1.140       .   S
C118       C119 1.540       .   A
C640       C118 1.606       .   S
C118       C123 1.540       .   A
C439       C444 1.540       .   A
C444       H448 1.140       .   S
C443       C444 1.540       .   A
C113       C114 1.540       .   A
C109       C114 1.540       .   A
C112       C113 1.540       .   A
C113       C383 1.565       .   S
C111       C112 1.540       .   A
C111       C630 1.614       .   S
C110       C111 1.540       .   A
C109       C110 1.540       .   A
C559       C564 1.540       .   A
C564       H568 1.140       .   S
C421       H426 1.140       .   S
C243       C313 1.534   1_655   S
O240       C243 1.250       .   A
C419       H425 1.140       .   S
C384       H388 1.140       .   S
C382       H387 1.140       .   S
C381       H386 1.140       .   S
C379       H385 1.140       .   S
C424       H428 1.140       .   S
C569       C574 1.540       .   A
C569       C570 1.540       .   A
C569       H575 1.140       .   S
C544       H548 1.140       .   S
C539       H545 1.140       .   S
C542       H547 1.140       .   S
C541       H546 1.140       .   S
O265      Cu270 1.951       .   S
O265       C274 1.250       .   A
O264      Cu269 1.951       .   S
O264       C274 1.250       .   A
O267      Cu270 1.951       .   S
O267       C272 1.250       .   A
O221       C231 1.250       .   A
O224       C231 1.251       .   A
C231       C473 1.532       .   S
O261      Cu269 1.951       .   S
O261       C271 1.250       .   A
O263      Cu269 1.951       .   S
O263       C273 1.250       .   A
O262      Cu269 1.951       .   S
O262       C272 1.250       .   A
O268      Cu270 1.951       .   S
O268       C271 1.250       .   A
C584       H588 1.140       .   S
C634       H638 1.140       .   S
C422       H427 1.140       .   S
C290       C291 1.540       .   A
C291       C292 1.540       .   A
C629       C634 1.540       .   A
C629       H635 1.140       .   S
C629       C630 1.540       .   A
C632       H637 1.140       .   S
C631       H636 1.140       .   S
C620       C621 1.540       .   A
C621       H626 1.140       .   S
C621       C622 1.540       .   A
C109       C620 1.622       .   S
C619       C620 1.540       .   A
C623       C202 1.621       .   S
C622       C623 1.540       .   A
C623       C624 1.540       .   A
C622       H627 1.140       .   S
Cu171     Cu172 2.630       .   S
C619       C624 1.540       .   A
C624       H628 1.140       .   S
O170      Cu172 1.951       .   S
C331       H336 1.140       .   S
C332       H337 1.140       .   S
C570        C82 1.574       .   S
C570       C571 1.540       .   A
C329       H335 1.140       .   S
C334       H338 1.140       .   S
C519       H525 1.140       .   S
C519       C520 1.540       .   A
O193       C203 1.250       .   A
O193      Cu199 1.951       .   S
O192       C202 1.250       .   A
O192      Cu199 1.951       .   S
O191       C201 1.250       .   A
O191      Cu199 1.951       .   S
O197      Cu200 1.951       .   S
O197       C202 1.250       .   A
O196      Cu200 1.951       .   S
O196       C203 1.251       .   A
O195       C204 1.250       .   A
O195      Cu200 1.951       .   S
O194       C204 1.250       .   A
O194      Cu199 1.951       .   S
O198      Cu200 1.951       .   S
O198       C201 1.250       .   A
C724       H728 1.140       .   S
O247      Cu255 1.951       .   S
O250      Cu255 1.951       .   S
Cu255     Cu256 2.630       .   S
O249      Cu255 1.951       .   S
O248      Cu255 1.951       .   S
O254      Cu256 1.951       .   S
O251      Cu256 1.951       .   S
O252      Cu256 1.951       .   S
O253      Cu256 1.951       .   S
C719       H725 1.140       .   S
C722       H727 1.140       .   S
C721       H726 1.140       .   S
C512       C513 1.540       .   A
C513        C93 1.574       .   S
C513       C514 1.540       .   A
C710       C711 1.540       .   A
C711       H716 1.140       .   S
C711       C712 1.540       .   A
C709       C710 1.540       .   A
C710       C149 1.532       .   S
C713       C714 1.540       .   A
C712       C713 1.540       .   A
C499       C500 1.540       .   A
C499       H505 1.140       .   S
C499       C504 1.540       .   A
C489       C494 1.540       .   A
C493       C494 1.540       .   A
C148       H152 1.140       .   S
C150       H153 1.140       .   S
C490        C55 1.567       .   S
C489       C490 1.540       .   A
C490       C491 1.540       .   A
C146       H151 1.140       .   S
C509       C510 1.540       .   A
C510       C511 1.540       .   A
C510        C68 1.576       .   S
C659       C664 1.540       .   A
C659       C660 1.540       .   A
C659       H665 1.140       .   S
C309       C310 1.540       .   A
C309       C314 1.540       .   A
C309       H315 1.140       .   S
C654       H658 1.140       .   S
C649       C654 1.540       .   A
C653       C654 1.540       .   A
C304       H308 1.140       .   S
C299       C304 1.540       .   A
C303       C304 1.540       .   A
C302       H307 1.140       .   S
C302       C303 1.540       .   A
C301       C302 1.540       .   A
C272       C303 1.573       .   S
C299       C300 1.540       .   A
C300       C301 1.540       .   A
C300         C1 1.571       .   S
C301       H306 1.140       .   S
C509       C514 1.540       .   A
C609       H615 1.140       .   S
C589       H595 1.140       .   S
O221      Cu227 1.951       .   S
O219      Cu227 1.951       .   S
O222      Cu227 1.951       .   S
Cu227     Cu228 2.630       .   S
O220      Cu227 1.951       .   S
C38         C39 1.540       .   A
C39        C430 1.586       .   S
C38         H43 1.140       .   S
C37         C38 1.540       .   A
C37        C420 1.610       .   S
C31         H35 1.140       .   S
C30         C31 1.540       .   A
C31         C32 1.540       .   A
C29         C30 1.540       .   A
C380        C30 1.564       .   S
C28         C33 1.540       .   A
C33         H36 1.140       .   S
C32         C33 1.540       .   A
C32        C390 1.610       .   S
C400       C401 1.540       .   A
C401       C402 1.540       .   A
C401       H406 1.140       .   S
C28        C400 1.619       .   S
C399       C400 1.540       .   A
C402       C403 1.540       .   A
C403       C404 1.540       .   A
C149       C150 1.540       .   A
C145       C150 1.540       .   A
C157       H161 1.140       .   S
C157       C158 1.540       .   A
C156       C157 1.540       .   A
C155       C156 1.540       .   A
C720       C156 1.519       .   S
C155       H160 1.140       .   S
C154       C155 1.540       .   A
C154       C159 1.540       .   A
C154       C730 1.572       .   S
C409       C414 1.540       .   A
C409       H415 1.140       .   S
C409       C410 1.540       .   A
C159       H162 1.140       .   S
C158       C159 1.540       .   A
C158       C363 1.588       .   S
C51         H54 1.140       .   S
C390       C391 1.540       .   A
C389       C390 1.540       .   A
C393       C187 1.607       .   S
C392       C393 1.540       .   A
C393       C394 1.540       .   A
C391       C392 1.540       .   A
C392       H397 1.140       .   S
C394       H398 1.140       .   S
C389       C394 1.540       .   A
C399       C404 1.540       .   A
C399       H405 1.140       .   S
C24         H27 1.140       .   S
O254       C257 1.250       .   A
C649       H655 1.140       .   S
O250       C260 1.250       .   A
O251       C260 1.250       .   A
O252       C259 1.251       .   A
O253       C258 1.250       .   A
C652       H657 1.140       .   S
C502       H507 1.140       .   S
C501       H506 1.140       .   S
C504       H508 1.140       .   S
C651       H656 1.140       .   S
C274       C453 1.612   1_455   S
C273       C633 1.613       .   S
C271       C733 1.571       .   S
C474       H478 1.140       .   S
C469       C474 1.540       .   A
C473       C474 1.540       .   A
C470        C57 1.533       .   S
C469       C470 1.540       .   A
C470       C471 1.540       .   A
C471       H476 1.140       .   S
C471       C472 1.540       .   A
C472       H477 1.140       .   S
C472       C473 1.540       .   A
O223      Cu228 1.951       .   S
O225      Cu228 1.951       .   S
O224      Cu228 1.951       .   S
C573       C190 1.573       .   S
C573       C574 1.540       .   A
C572       C573 1.540       .   A
O226       C229 1.250       .   A
O226      Cu228 1.951       .   S
C712       H717 1.140       .   S
C372       H377 1.140       .   S
C369       H375 1.140       .   S
C374       H378 1.140       .   S
C571       H576 1.140       .   S
C572       H577 1.140       .   S
C469       H475 1.140       .   S
C574       H578 1.140       .   S
C610       C104 1.534       .   S
C609       C610 1.540       .   A
C364       H368 1.140       .   S
C359       C364 1.540       .   A
C363       C364 1.540       .   A
C571       C572 1.540       .   A
O179      Cu185 1.951       .   S
O179       C189 1.250       .   A
O178       C188 1.250       .   A
O178      Cu185 1.951       .   S
C619       H625 1.140       .   S
O177       C187 1.250       .   A
O177      Cu185 1.951       .   S
O170       C173 1.250       .   A
C729       C734 1.540       .   A
C729       H735 1.140       .   S
C729       C730 1.540       .   A
C714       H718 1.140       .   S
C709       C714 1.540       .   A
C391       H396 1.140       .   S
C73         C78 1.540       .   A
C78         H81 1.140       .   S
C77         C78 1.540       .   A
C709       H715 1.140       .   S
C20         H25 1.140       .   S
C720       C721 1.540       .   A
C719       C720 1.540       .   A
C73         C74 1.540       .   A
C73        C550 1.568       .   S
C22         H26 1.140       .   S
C74         C75 1.540       .   A
C540        C75 1.510       .   S
C75         C76 1.540       .   A
C74         H79 1.140       .   S
C530        C77 1.589       .   S
C76         C77 1.540       .   A
C76         H80 1.140       .   S
Cu269     Cu270 2.630       .   S
C103       H107 1.140       .   S
C101       H106 1.140       .   S
C723       C724 1.540       .   A
C722       C723 1.540       .   A
C217       C723 1.520   1_556   S
C719       C724 1.540       .   A
C105       H108 1.140       .   S
C354       H358 1.140       .   S
C353       C354 1.540       .   A
C350       C351 1.540       .   A
C351       H356 1.140       .   S
C351       C352 1.540       .   A
C350        C23 1.532       .   S
C352       C353 1.540       .   A
C229       C353 1.533   1_565   S
C352       H357 1.140       .   S
C492       C493 1.540       .   A
C491       C492 1.540       .   A
C359       H365 1.140       .   S
C359       C360 1.540       .   A
C721       C722 1.540       .   A
C493       C203 1.565   1_565   S
C689       C690 1.540       .   A
C682       C683 1.540       .   A
C683       C684 1.540       .   A
C681       C682 1.540       .   A
C682       H687 1.140       .   S
C680       C681 1.540       .   A
C681       H686 1.140       .   S
C684       H688 1.140       .   S
C679       C684 1.540       .   A
C530       C531 1.540       .   A
C531       C532 1.540       .   A
C531       H536 1.140       .   S
C532       C533 1.540       .   A
C533       C534 1.540       .   A
C533       C102 1.590       .   S
C532       H537 1.140       .   S
C534       H538 1.140       .   S
C664       H668 1.140       .   S
C663       C664 1.540       .   A
C539       C544 1.540       .   A
C539       C540 1.540       .   A
C679       H685 1.140       .   S
C439       H445 1.140       .   S
C128       C129 1.540       .   A
C127       C128 1.540       .   A
C128       H133 1.140       .   S
C129       C130 1.540       .   A
C463       C129 1.575       .   S
C122       C650 1.609       .   S
C122       C123 1.540       .   A
C121       C122 1.540       .   A
C123       H126 1.140       .   S
C120       C121 1.540       .   A
C120       C433 1.586       .   S
C121       H125 1.140       .   S
C434       H438 1.140       .   S
C429       C434 1.540       .   A
C433       C434 1.540       .   A
C127       C132 1.540       .   A
C670       C127 1.629       .   S
C660       C131 1.623       .   S
C660       C661 1.540       .   A
C663       C188 1.620   1_545   S
C662       C663 1.540       .   A
C649       C650 1.540       .   A
C650       C651 1.540       .   A
C661       C662 1.540       .   A
C662       H667 1.140       .   S
C651       C652 1.540       .   A
C429       H435 1.140       .   S
C652       C653 1.540       .   A
C432       H437 1.140       .   S
C431       H436 1.140       .   S
C92         C93 1.540       .   A
C93         C94 1.540       .   A
C91         C92 1.540       .   A
C92         H97 1.140       .   S
C91         C96 1.540       .   A
C96         H99 1.140       .   S
C95         C96 1.540       .   A
C94         C95 1.540       .   A
C580        C95 1.529       .   S
C94         H98 1.140       .   S
O210       C217 1.251       .   A
O211       C216 1.250       .   A
O212       C215 1.250       .   A
O219       C229 1.250       .   A
C540       C541 1.540       .   A
C541       C542 1.540       .   A
C542       C543 1.540       .   A
C543       C544 1.540       .   A
C216       C543 1.513   1_556   S
C549       H555 1.140       .   S
C549       C554 1.540       .   A
C549       C550 1.540       .   A
C552       C553 1.540       .   A
C552       H557 1.140       .   S
C551       C552 1.540       .   A
C551       H556 1.140       .   S
C550       C551 1.540       .   A
C189       C553 1.571       .   S
C553       C554 1.540       .   A
C441       H446 1.140       .   S
C442       H447 1.140       .   S
C324       H328 1.140       .   S
C319       H325 1.140       .   S
C322       H327 1.140       .   S
C321       H326 1.140       .   S
C480       C481 1.540       .   A
C481       H486 1.140       .   S
C480        C59 1.585       .   S
C139       H143 1.140       .   S
C137       H142 1.140       .   S
C661       H666 1.140       .   S
C141       H144 1.140       .   S
C319       C320 1.540       .   A
C319       C324 1.540       .   A
C310       C311 1.540       .   A
C311       H316 1.140       .   S
C311       C312 1.540       .   A
C310         C5 1.532       .   S
C312       C313 1.540       .   A
C313       C314 1.540       .   A
C312       H317 1.140       .   S
C174       C643 1.604   1_655   S
C314       H318 1.140       .   S
C640       C641 1.540       .   A
C639       C640 1.540       .   A
C631       C632 1.540       .   A
C630       C631 1.540       .   A
C22         C23 1.540       .   A
C21         C22 1.540       .   A
C23         C24 1.540       .   A
C19         C20 1.540       .   A
C20         C21 1.540       .   A
C21        C360 1.586       .   S
C19         C24 1.540       .   A
C28         C29 1.540       .   A
C29         H34 1.140       .   S
C579       H585 1.140       .   S
C582       H587 1.140       .   S
C581       H586 1.140       .   S
C130       H134 1.140       .   S
C132       H135 1.140       .   S
C369       C374 1.540       .   A
C56         H61 1.140       .   S
C60         H63 1.140       .   S
C58         H62 1.140       .   S
C360       C361 1.540       .   A
C361       C362 1.540       .   A
C361       H366 1.140       .   S
C362       H367 1.140       .   S
C362       C363 1.540       .   A
O184       C187 1.250       .   A
O249       C259 1.250       .   A
O248       C258 1.250       .   A
O247       C257 1.250       .   A
O183       C188 1.250       .   A
O182       C189 1.251       .   A
O240      Cu242 1.951       .   S
C85         H89 1.140       .   S
C83         H88 1.140       .   S
C703       C260 1.564       .   S
C459       C464 1.540       .   A
C463       C464 1.540       .   A
C462       C463 1.540       .   A
C461       C462 1.540       .   A
C460       C461 1.540       .   A
C459       C460 1.540       .   A
C500        C64 1.562       .   S
C500       C501 1.540       .   A
C501       C502 1.540       .   A
C502       C503 1.540       .   A
C175       C503 1.563   1_655   S
C503       C504 1.540       .   A
C452       H457 1.140       .   S
C430       C431 1.540       .   A
C429       C430 1.540       .   A
C402       H407 1.140       .   S
C431       C432 1.540       .   A
C432       C433 1.540       .   A
C404       H408 1.140       .   S
C559       H565 1.140       .   S
C215       C583 1.533       .   S
O205       C215 1.250       .   A
O206       C216 1.250       .   A
O207       C217 1.250       .   A
O209       C218 1.250       .   A
O208       C218 1.250       .   A
C218       C323 1.540       .   S
C176       C603 1.566   1_556   S
C602       C603 1.540       .   A
C603       C604 1.540       .   A
C601       C602 1.540       .   A
C602       H607 1.140       .   S
C600       C601 1.540       .   A
C601       H606 1.140       .   S
C600       C100 1.565       .   S
C604       H608 1.140       .   S
C454       H458 1.140       .   S
Cu199     Cu200 2.630       .   S
C734       H738 1.140       .   S
C582       C583 1.540       .   A
C583       C584 1.540       .   A
C290         C3 1.585       .   S
C2           C3 1.540       .   A
C3           C4 1.540       .   A
C1           C2 1.540       .   A
C2           H7 1.140       .   S
C1           C6 1.540       .   A
C6           H9 1.140       .   S
C5           C6 1.540       .   A
C4           C5 1.540       .   A
C4           H8 1.140       .   S
C702       H707 1.140       .   S
C701       H706 1.140       .   S
C68         C69 1.540       .   A
C67         C68 1.540       .   A
C64         C69 1.540       .   A
C69         H72 1.140       .   S
C520        C66 1.534       .   S
C66         C67 1.540       .   A
C65         C66 1.540       .   A
C67         H71 1.140       .   S
C64         C65 1.540       .   A
C65         H70 1.140       .   S
C55         C60 1.540       .   A
C59         C60 1.540       .   A
C320       C321 1.540       .   A
C14        C320 1.537       .   S
C321       C322 1.540       .   A
C322       C323 1.540       .   A
C323       C324 1.540       .   A
C329       C330 1.540       .   A
C329       C334 1.540       .   A
C733       C734 1.540       .   A
C732       C733 1.540       .   A
C732       H737 1.140       .   S
C731       C732 1.540       .   A
C731       H736 1.140       .   S
C730       C731 1.540       .   A
C12         C13 1.540       .   A
C13         C14 1.540       .   A
C11         C12 1.540       .   A
C10         C11 1.540       .   A
C10        C330 1.569       .   S
C10         C15 1.540       .   A
C14         C15 1.540       .   A
C136       C137 1.540       .   A
C137       C138 1.540       .   A
C136       C141 1.540       .   A
C690       C136 1.565       .   S
C130       C131 1.540       .   A
C131       C132 1.540       .   A
C139       C140 1.540       .   A
C138       C139 1.540       .   A
C680       C138 1.524       .   S
C422       C423 1.540       .   A
C423       C424 1.540       .   A
C423       C257 1.607       .   S
C421       C422 1.540       .   A
C420       C421 1.540       .   A
C419       C420 1.540       .   A
C419       C424 1.540       .   A
C82         C83 1.540       .   A
C82         C87 1.540       .   A
C83         C84 1.540       .   A
C84         C85 1.540       .   A
C85         C86 1.540       .   A
C86         C87 1.540       .   A
C87         H90 1.140       .   S
C521       H526 1.140       .   S
C673       C258 1.626   1_544   S
C554       H558 1.140       .   S
C700       C145 1.562       .   S
C700       C701 1.540       .   A
C520       C521 1.540       .   A
C451       H456 1.140       .   S
C679       C680 1.540       .   A
C672       C673 1.540       .   A
C671       C672 1.540       .   A
C672       H677 1.140       .   S
C673       C674 1.540       .   A
C670       C671 1.540       .   A
C671       H676 1.140       .   S
C674       H678 1.140       .   S
C56         C57 1.540       .   A
C57         C58 1.540       .   A
C55         C56 1.540       .   A
C50         C51 1.540       .   A
C50        C450 1.614       .   S
C58         C59 1.540       .   A
C580       C581 1.540       .   A
C579       C580 1.540       .   A
C581       C582 1.540       .   A
C579       C584 1.540       .   A
C511       C512 1.540       .   A
C379       C384 1.540       .   A
C379       C380 1.540       .   A
O180       C190 1.250       .   A
O181       C190 1.250       .   A
C299       H305 1.140       .   S
C293       C294 1.540       .   A
C292       C293 1.540       .   A
C293       C140 1.584   1_455   S
C452       C453 1.540       .   A
C451       C452 1.540       .   A
C453       C454 1.540       .   A
C450       C451 1.540       .   A
C104       C105 1.540       .   A
C103       C104 1.540       .   A
C100       C105 1.540       .   A
C100       C101 1.540       .   A
C101       C102 1.540       .   A
C102       C103 1.540       .   A
C389       H395 1.140       .   S
C414       H418 1.140       .   S
C412       H417 1.140       .   S
C411       H416 1.140       .   S
C201       C413 1.612   1_545   S
O180      Cu185 1.951       .   S
Cu185     Cu186 2.630       .   S
O181      Cu186 1.951       .   S
O182      Cu186 1.951       .   S
O183      Cu186 1.951       .   S
O184      Cu186 1.951       .   S
C633       C634 1.540       .   A
C632       C633 1.540       .   A
C413       C414 1.540       .   A
C412       C413 1.540       .   A
C410       C411 1.540       .   A
C441       C442 1.540       .   A
C411       C412 1.540       .   A
C173       C443 1.625   1_556   S
C442       C443 1.540       .   A
Cu241     Cu242 2.630       .   S
C332       C333 1.540       .   A
C333       C334 1.540       .   A
C331       C332 1.540       .   A
C330       C331 1.540       .   A
C702       C703 1.540       .   A
C701       C702 1.540       .   A
C703       C704 1.540       .   A
C383       C384 1.540       .   A
C704       H708 1.140       .   S
C382       C383 1.540       .   A
C381       C382 1.540       .   A
C140       C141 1.540       .   A
C145       C146 1.540       .   A
C146       C147 1.540       .   A
C147       C148 1.540       .   A
C148       C149 1.540       .   A
C380       C381 1.540       .   A
