data_hwx_v1-6c_Zr_1_Ch_v2-3c_B_Ch_1B_4H_Ch
_audit_creation_date              2019-09-04
_audit_creation_method            'tobacco_3.0'
_symmetry_space_group_name_H-M    'P1'
_symmetry_Int_Tables_number       1
_symmetry_cell_setting            triclinic
loop_
_symmetry_equiv_pos_as_xyz
  x,y,z
_cell_length_a                    36.246861198558484
_cell_length_b                    35.30847727718737
_cell_length_c                    19.098176594105503
_cell_angle_alpha                 89.99612476595713
_cell_angle_beta                  84.887289265259
_cell_angle_gamma                 89.98478793563636
loop_
_atom_site_label
_atom_site_type_symbol
_atom_site_fract_x
_atom_site_fract_y
_atom_site_fract_z
Zr1       Zr    0.2739983556    0.7499244279   -0.1258342638
O2         O    0.2970218630    0.7073176246   -0.1945703119
O3         O    0.2760659513    0.8050677495   -0.1833408257
O4         O    0.2335654003    0.7410914322   -0.2059581277
O5         O    0.3595280855    0.7656826992   -0.0516362625
O6         O    0.1786273101    0.7341978547   -0.1484024510
O7         O    0.3346924533    0.7586964144   -0.1518742767
O8         O    0.2546624029    0.8486351996   -0.1079428101
O9         O    0.2267193768    0.7772604797   -0.0774099811
O10        O    0.2862544331    0.7876259851   -0.0455681260
O11        O    0.2362077076    0.7123076016   -0.0722023701
O12        O    0.2957408880    0.7226680766   -0.0403569444
Zr13      Zr    0.2259986951    0.7500743398    0.1258221658
Zr14      Zr    0.1863881274    0.7389268094   -0.0340297741
Zr15      Zr    0.3136111353    0.7610728826    0.0340267496
Zr16      Zr    0.2398585947    0.8194106591   -0.0055687238
O17        O    0.3529023602    0.7190407641    0.0529379963
O18        O    0.1906315101    0.8467596330   -0.0308252826
O19        O    0.2637934311    0.7876971207    0.0721957750
O20        O    0.2042583747    0.7773316153    0.0403539199
O21        O    0.2137448296    0.7123737069    0.0455651015
O22        O    0.2732798859    0.7227392123    0.0774069566
C23        C    0.2673422820    0.8367315767   -0.1643626881
C24        C    0.3595926434    0.7637570401   -0.1148296178
C25        C    0.2004494509    0.7360564754   -0.1999590735
O26        O    0.1454586628    0.7799831388   -0.0501424394
O27        O    0.1404711772    0.7343169927    0.0516332380
O28        O    0.1653068094    0.7413032776    0.1518712522
C29        C    0.1404088312    0.7362435760    0.1148356669
O30        O    0.2832480428    0.6500610767   -0.0835134516
Zr31      Zr    0.2601406679    0.6805890328    0.0055656993
O32        O    0.2239333114    0.6949319425    0.1833378012
O33        O    0.1584347575    0.6867028491   -0.0434773987
O34        O    0.2185832615    0.6405670887   -0.0124018038
O35        O    0.3083935217    0.6502152649    0.0277884300
O36        O    0.2453368598    0.6513644923    0.1079397856
C37        C    0.2326569807    0.6632681152    0.1643596636
O38        O    0.2069929276    0.7929418825    0.1981488086
O39        O    0.3398574188    0.8131083691    0.0542157215
O40        O    0.2664338623    0.7589082597    0.2059551032
O41        O    0.3213719526    0.7658018372    0.1483994265
O42        O    0.2796462768    0.8611249799    0.0132409968
O43        O    0.2238691679    0.8543066374    0.0822829420
C44        C    0.2995498118    0.7639432166    0.1999560490
H45        H    0.3040384779    0.8065838163   -0.0659941417
H46        H    0.1822201306    0.7916451254    0.0595298517
H47        H    0.2854891048    0.7089967291    0.1138815759
H48        H    0.2298902271    0.6932104911   -0.1069666428
H49        H    0.1961820936    0.8742335227   -0.0306065668
H50        H    0.1337206675    0.6935475066   -0.0579612605
H51        H    0.2271534800    0.6158869062    0.0047425619
H52        H    0.2701780818    0.8854423350   -0.0039814289
H53        H    0.3651307041    0.8061886446    0.0655853171
H54        H    0.3747401680    0.7329667180    0.0671937300
H55        H    0.3006674138    0.6234261059    0.0342183389
H56        H    0.1968871234    0.8512624583    0.0938313013
H57        H    0.2257132915    0.8133978043    0.1931804539
H58        H    0.3002037077    0.7192359469   -0.2416904341
H59        H    0.2775968179    0.6228351461   -0.0762733650
H60        H    0.3439289326    0.8268004033    0.0090197397
H61        H    0.1847615259    0.8044281520    0.1803338650
H62        H    0.1510748050    0.7903025169   -0.0980384075
H63        H    0.1880056470    0.8410534924   -0.0808305960
H64        H    0.3147055808    0.6579418425    0.0749883680
H65        H    0.1706128476    0.6733961618   -0.0848659745
H66        H    0.2775550576    0.6879807879   -0.1983493778
Zr67      Zr    0.7132850042    0.2686129297    0.1648667745
O68        O    0.6757082956    0.2991497677    0.2350265533
O69        O    0.7654986353    0.2591551971    0.2162689884
O70        O    0.6953451481    0.2286483376    0.2519387029
O71        O    0.7466625332    0.3524543337    0.0764975275
O72        O    0.6789505665    0.1755654993    0.2029047924
O73        O    0.7332014260    0.3275316520    0.1812844692
O74        O    0.8044398070    0.2301470302    0.1390959129
O75        O    0.7310530016    0.2164186695    0.1201984328
O76        O    0.7533407430    0.2746325965    0.0786012066
O77        O    0.6707476725    0.2387057188    0.1206035291
O78        O    0.6930302864    0.2969187909    0.0790035356
Zr79      Zr    0.7086103358    0.2237105789   -0.0804551234
Zr80      Zr    0.6871366059    0.1839624072    0.0866524424
Zr81      Zr    0.7347602252    0.3083632640   -0.0022503028
Zr82      Zr    0.7753923681    0.2223446253    0.0417705744
O83        O    0.7025716395    0.3562991595   -0.0223355943
O84        O    0.7914228342    0.1672093046    0.0712255241
O85        O    0.7511542861    0.2536208073   -0.0361986223
O86        O    0.7288665447    0.1954068803    0.0053986040
O87        O    0.6685560881    0.2176930748    0.0058009330
O88        O    0.6908438296    0.2759070017   -0.0357962932
C89        C    0.7944860002    0.2444596430    0.1950968688
C90        C    0.7436581685    0.3520536398    0.1400289970
C91        C    0.6840877196    0.1964403266    0.2512347653
O92        O    0.7181178806    0.1346084292    0.1042737571
O93        O    0.6752342979    0.1398713376    0.0079046121
O94        O    0.6886954051    0.1647940192   -0.0968823296
C95        C    0.6782401537    0.1402741941   -0.0556363689
O96        O    0.6201484519    0.2979722895    0.1318676222
Zr97      Zr    0.6465044631    0.2699810460    0.0426315652
O98        O    0.6563981958    0.2331704742   -0.1318668488
O99        O    0.6313685136    0.1659511653    0.1057646597
O100       O    0.5995905555    0.2358055446    0.0709275392
O101       O    0.6273252227    0.3246878860    0.0166829166
O102       O    0.6174570241    0.2621786410   -0.0546937733
C103       C    0.6274108309    0.2478660282   -0.1106947292
O104       O    0.7472971546    0.1972072163   -0.1548198192
O105       O    0.7902094356    0.3248392798   -0.0318616995
O106       O    0.7265516831    0.2636773336   -0.1675365633
O107       O    0.7429462646    0.3167601719   -0.1185026528
O108       O    0.8235949491    0.2544228121    0.0127031151
O109       O    0.8073195899    0.2006353054   -0.0477298739
C110       C    0.7378091116    0.2958853447   -0.1668326257
H111       H    0.7746515568    0.2885256350    0.0944725975
H112       H    0.7385923974    0.1707253701   -0.0121881276
H113       H    0.6807550916    0.2913430552   -0.0726302558
H114       H    0.6505456751    0.2356251654    0.1584093846
H115       H    0.8188648532    0.1674233491    0.0672507622
H116       H    0.6327811560    0.1395915947    0.1231013047
H117       H    0.5779379700    0.2494641551    0.0551675638
H118       H    0.8447208441    0.2399318334    0.0287096209
H119       H    0.7887775734    0.3517338510   -0.0461495803
H120       H    0.7205012311    0.3757095583   -0.0412648554
H121       H    0.6002331836    0.3222429423    0.0142337545
H122       H    0.7992852889    0.1742750768   -0.0550925561
H123       H    0.7705156546    0.2119542647   -0.1547363659
H124       H    0.6868908891    0.2993914013    0.2805106115
H125       H    0.5930624875    0.2977080450    0.1283548384
H126       H    0.8033040195    0.3256539851    0.0113750147
H127       H    0.7535887822    0.1723911320   -0.1350015639
H128       H    0.7282338800    0.1375977034    0.1503570708
H129       H    0.7845067188    0.1650195216    0.1223337874
H130       H    0.6368546342    0.3301492056   -0.0323617567
H131       H    0.6202488463    0.1802338365    0.1469241890
H132       H    0.6532532527    0.2833177281    0.2436969323
Zr133     Zr    0.7483155621    0.7686019648    0.3736634177
O134       O    0.7858852867    0.7991279935    0.3034975472
O135       O    0.6961040953    0.7591597640    0.3222630839
O136       O    0.7662645662    0.7286323942    0.2865994708
O137       O    0.7149188449    0.8524528846    0.4620159203
O138       O    0.7826712927    0.6755445643    0.3356439826
O139       O    0.7283856587    0.8275266028    0.3572339561
O140       O    0.6571695575    0.7301627837    0.3994419457
O141       O    0.7305595056    0.7164127751    0.4183421780
O142       O    0.7082584419    0.7746331160    0.4599277781
O143       O    0.7908597367    0.7386820911    0.4179326411
O144       O    0.7685638007    0.7969015757    0.4595210086
Zr145     Zr    0.7530004967    0.7236973961    0.6189942830
Zr146     Zr    0.7744833278    0.6839434811    0.4518946555
Zr147     Zr    0.7268312394    0.8083580429    0.5407725562
Zr148     Zr    0.6862187793    0.7223515019    0.4967688470
O149       O    0.7590088568    0.8562844046    0.5608482818
O150       O    0.6702009296    0.6672209949    0.4673249030
O151       O    0.7104497028    0.7536202892    0.5747318032
O152       O    0.7327507665    0.6953999483    0.5331462031
O153       O    0.7930561253    0.7176684079    0.5327394336
O154       O    0.7707550616    0.7758887489    0.5743250337
C155       C    0.6671200915    0.7444726618    0.3434381333
C156       C    0.7179233035    0.8520515252    0.3984845309
C157       C    0.7775293647    0.6964210689    0.2873098408
O158       O    0.7435133459    0.6345986733    0.4342831900
O159       O    0.7863957223    0.6398486393    0.5306512914
O160       O    0.7729289085    0.6647749212    0.6354332556
C161       C    0.7833897721    0.6402521619    0.5941921918
O162       O    0.8414453980    0.7979338215    0.4066567224
Zr163     Zr    0.8150957879    0.7699500220    0.4958983647
O164       O    0.8052104719    0.7331417600    0.6704041278
O165       O    0.8302555437    0.6659159031    0.4327860427
O166       O    0.8620175177    0.7357608195    0.4676092212
O167       O    0.8342625102    0.8246511344    0.5218360936
O168       O    0.8441450097    0.7621387403    0.5932252660
C169       C    0.8341944757    0.7478288622    0.6492290784
O170       O    0.7143197388    0.6972051549    0.6933642650
O171       O    0.6713782565    0.8248502649    0.5703806551
O172       O    0.7350500010    0.7636691298    0.7060677409
O173       O    0.7186432745    0.8167569597    0.6570232291
O174       O    0.6380088559    0.7544437662    0.5258298945
O175       O    0.6542965210    0.7006512638    0.5862736255
C176       C    0.7237852025    0.7958804551    0.7053573710
H177       H    0.6869444490    0.7885324769    0.4440536100
H178       H    0.7230305604    0.6707212372    0.5507378612
H179       H    0.7808402666    0.7913217095    0.6111559160
H180       H    0.8110624409    0.7355957260    0.3801274035
H181       H    0.6427588607    0.6674430963    0.4712996180
H182       H    0.8288489333    0.6395568065    0.4154546604
H183       H    0.8836669779    0.7494130085    0.4833664728
H184       H    0.6168862766    0.7399590549    0.5098262786
H185       H    0.6728039643    0.8517443669    0.5846631663
H186       H    0.7410748226    0.8757000122    0.5797736648
H187       H    0.8613551094    0.8221982146    0.5242857480
H188       H    0.6623368536    0.6742886463    0.5936415720
H189       H    0.6910978638    0.7119590325    0.6932778638
H190       H    0.7747026392    0.7993730719    0.2580134388
H191       H    0.8685314235    0.7976615991    0.4101695631
H192       H    0.6582834872    0.8256689696    0.5271437759
H193       H    0.7080337900    0.6723909882    0.6735509634
H194       H    0.7333966638    0.6375910807    0.3881992777
H195       H    0.6771175479    0.6650293532    0.4162170777
H196       H    0.8247318471    0.8301150884    0.5708796753
H197       H    0.8413719445    0.6801954457    0.3916236632
H198       H    0.8083439532    0.7832893793    0.2948303325
Zr199     Zr    0.1876038614    0.2499428525    0.6643631545
O200       O    0.1645955140    0.2073399815    0.7331078171
O201       O    0.1855215437    0.3050857067    0.7218616923
O202       O    0.2280425143    0.2410997303    0.7444827630
O203       O    0.1020662752    0.2657210178    0.5901740165
O204       O    0.2829810185    0.2341950601    0.6869215461
O205       O    0.1269076520    0.2587276954    0.6904093420
O206       O    0.2069093999    0.3486496855    0.6464551655
O207       O    0.2348731554    0.2772693414    0.6159293042
O208       O    0.1753335012    0.2876483772    0.5840935893
O209       O    0.2254042668    0.2123186196    0.6107322687
O210       O    0.1658664900    0.2226926246    0.5788929837
Zr211     Zr    0.2355950197    0.2500862991    0.4127021779
Zr212     Zr    0.2752147505    0.2389275446    0.5725498304
Zr213     Zr    0.1479819181    0.2611025317    0.5045064286
Zr214     Zr    0.2217185944    0.3194235467    0.5440840395
O215       O    0.1087025390    0.2190793075    0.4856062632
O216       O    0.2709385608    0.3467613512    0.5693303524
O217       O    0.1977905244    0.2877164876    0.4663275604
O218       O    0.2573301786    0.2773374517    0.4981632754
O219       O    0.2478631674    0.2123816992    0.4929626698
O220       O    0.1883235132    0.2227607350    0.4611269548
C221       C    0.1942350120    0.3367479313    0.7028780130
C222       C    0.1020044950    0.2637943603    0.6533672861
C223       C    0.2611599764    0.2360576272    0.7384803274
O224       O    0.3161325773    0.2799746663    0.5886513666
O225       O    0.3211303934    0.2343090586    0.4868822426
O226       O    0.2962890165    0.2413023810    0.3866469171
C227       C    0.3211899610    0.2362366409    0.4236798997
O228       O    0.1783829058    0.1500821986    0.6220581357
Zr229     Zr    0.2014780742    0.1806065296    0.5329722195
O230       O    0.2376751249    0.1949443697    0.3551945668
O231       O    0.3031844361    0.1866973180    0.5820014274
O232       O    0.2430484757    0.1405752080    0.5509401854
O233       O    0.1532333663    0.1502436693    0.5107600309
O234       O    0.2162872686    0.1513803908    0.4306010936
C235       C    0.2289616566    0.1632821451    0.3741782461
O236       O    0.2545853998    0.2929508456    0.3403674066
O237       O    0.1217190130    0.3131440834    0.4843133610
O238       O    0.1951541543    0.2589303461    0.3325734961
O239       O    0.1402156500    0.2658350162    0.3901347130
O240       O    0.1819173857    0.3611468716    0.5252733959
O241       O    0.2376944919    0.3543174369    0.4562258622
C242       C    0.1620366922    0.2639724492    0.3385759316
H243       H    0.1575443170    0.3066097710    0.6045189780
H244       H    0.2793635503    0.2916464499    0.4789826375
H245       H    0.1761171191    0.2090215058    0.4246560569
H246       H    0.2317287780    0.1932195698    0.6454982985
H247       H    0.2653796130    0.3742364593    0.5691083739
H248       H    0.3278971013    0.1935363388    0.5964811268
H249       H    0.2344850887    0.1158971735    0.5338005481
H250       H    0.1913788672    0.3854618810    0.5424910326
H251       H    0.0964472801    0.3062300679    0.4729479904
H252       H    0.0868598880    0.2330102661    0.4713513383
H253       H    0.1609674129    0.1234529227    0.5043330530
H254       H    0.2646772170    0.3512675420    0.4446746346
H255       H    0.2358589002    0.3134107826    0.3453351265
H256       H    0.1614116761    0.2192582451    0.7802263433
H257       H    0.1840421614    0.1228551472    0.6148213074
H258       H    0.1176448965    0.3268362843    0.5295076139
H259       H    0.2768140714    0.3044319682    0.3581778101
H260       H    0.3105149388    0.2902945056    0.6365462689
H261       H    0.2735679049    0.3410538350    0.6193358657
H262       H    0.1469172896    0.1579723838    0.4635600464
H263       H    0.2910117431    0.1733926304    0.6233932005
H264       H    0.1840684242    0.1879988263    0.7368872118
C265       C    0.1658197791    0.4679497138    0.1066468971
C266       C    0.1640986921    0.4455415960    0.0378418904
C267       C    0.1607596172    0.4020676823    0.0398493953
C268       C    0.1591416292    0.3810018864    0.1106619070
C269       C    0.1608627161    0.4034100043    0.1794669137
C270       C    0.1642017911    0.4468839180    0.1774594088
H271       H    0.1652964162    0.4611356612   -0.0145876864
H272       H    0.1566698465    0.3488198984    0.1121479820
H273       H    0.1654758497    0.4634718409    0.2284029105
C274       C    0.8079884635    0.5072132692    0.0119726020
C275       C    0.8097794231    0.5297641357    0.0806004750
C276       C    0.8132310578    0.5732253914    0.0782543046
C277       C    0.8148917329    0.5941357807    0.0072802613
C278       C    0.8131007733    0.5715849142   -0.0613476116
C279       C    0.8096491386    0.5281236585   -0.0590014413
H280       H    0.8085501015    0.5142851330    0.1331496261
H281       H    0.8174468391    0.6263083986    0.0055434859
H282       H    0.8083233541    0.5114300433   -0.1098138169
C283       C    0.0117846510    0.7584487147    0.5633159503
C284       C    0.0348830994    0.7586267549    0.4916237722
C285       C    0.0774874921    0.7589551446    0.4883391192
C286       C    0.0969934364    0.7591054941    0.5567466443
C287       C    0.0738949880    0.7589274540    0.6284388224
C288       C    0.0312905953    0.7585990643    0.6317234754
H289       H    0.0204438896    0.7585154591    0.4409744758
H290       H    0.1285317531    0.7593485878    0.5543151479
H291       H    0.0141914885    0.7584672664    0.6848042681
C292       C    0.9213409489    0.3106923048    0.5728744908
C293       C    0.9016840297    0.3105410645    0.5046399869
C294       C    0.8590717064    0.3102132052    0.5082469046
C295       C    0.8361163022    0.3100365863    0.5800883263
C296       C    0.8557732213    0.3101878267    0.6483228302
C297       C    0.8983855447    0.3105156859    0.6447159124
H298       H    0.9186772258    0.3106718102    0.4514487168
H299       H    0.8045721147    0.3097938853    0.5827583822
H300       H    0.9129365361    0.3106276413    0.6952371265
C301       C    0.2957652556    0.9679190180    0.4318580010
C302       C    0.2974865075    0.9455073900    0.5006656948
C303       C    0.3008255124    0.9020317461    0.4986634688
C304       C    0.3024432654    0.8809677303    0.4278535490
C305       C    0.3007220134    0.9033793583    0.3590458552
C306       C    0.2973830085    0.9468550022    0.3610480812
H307       H    0.2962889575    0.9611001371    0.5530933531
H308       H    0.3049149963    0.8487844615    0.4263713817
H309       H    0.2961088277    0.9634455239    0.3101025903
C310       C    0.6536340176    0.0072576091    0.5265851369
C311       C    0.6518428632    0.0298120180    0.4579545693
C312       C    0.6483912543    0.0732750482    0.4602954787
C313       C    0.6467307998    0.0941836695    0.5312669557
C314       C    0.6485219542    0.0716292606    0.5998975234
C315       C    0.6519735631    0.0281662304    0.5975566140
H316       H    0.6530720215    0.0143343244    0.4054073178
H317       H    0.6441757127    0.1263576009    0.5329998367
H318       H    0.6532994919    0.0114699925    0.6483709844
C319       C    0.4498198887    0.2584518235    0.9751998341
C320       C    0.4267211951    0.2586300070    1.0468918197
C321       C    0.3841166459    0.2589586589    1.0501760676
C322       C    0.3646107904    0.2591091273    0.9817683300
C323       C    0.3877094841    0.2589309437    0.9100763444
C324       C    0.4303140332    0.2586022918    0.9067920964
H325       H    0.4411603392    0.2585186233    1.0975412735
H326       H    0.3330723579    0.2593524151    0.9841995265
H327       H    0.4474133216    0.2584703877    0.8537114462
C328       C    0.5402226877    0.8106770225    0.9656595457
C329       C    0.5631783397    0.8105005475    0.8938183155
C330       C    0.6057908237    0.8101729575    0.8902118038
C331       C    0.6254476558    0.8100218426    0.9584465222
C332       C    0.6024920038    0.8101983177    1.0302877524
C333       C    0.5598795198    0.8105259076    1.0338942642
H334       H    0.5486274128    0.8106124099    0.8432969426
H335       H    0.6569919621    0.8097793409    0.9557767668
H336       H    0.5428861403    0.8106565468    1.0870853925
C567       C    0.2593304471    0.0801643052    0.3277374758
C568       C    0.2485069395    0.1061231350    0.3910540903
C569       C    0.2515399484    0.0915594113    0.4663347380
C570       C    0.2653964650    0.0510368578    0.4782987713
C571       C    0.2762199727    0.0250780281    0.4149821568
C572       C    0.2731869637    0.0396417518    0.3397015091
H573       H    0.2570852327    0.0909452436    0.2720102430
H574       H    0.2435285225    0.1107735839    0.5132038534
H575       H    0.2676416794    0.0402559195    0.5340260040
H576       H    0.2811983896    0.0204275791    0.2928323937
C557       C    0.0395658455    0.3188417234    0.6259357283
C558       C    0.0511081507    0.2770063999    0.6306909404
C559       C    0.0232150272    0.2454080091    0.6178761005
C560       C   -0.0162204015    0.2556449417    0.6003060486
C561       C   -0.0277627067    0.2974802652    0.5955508365
C562       C    0.0001304168    0.3290786561    0.6083656763
H563       H    0.0602140018    0.3422327401    0.6354220383
H564       H    0.0317577177    0.2144406513    0.6213954861
H565       H   -0.0368685579    0.2322539251    0.5908197386
H566       H   -0.0084122738    0.3600460138    0.6048462908
C547       C    0.3119178813    0.2071022277    0.8073002490
C548       C    0.2915462830    0.2415498304    0.7796829309
C549       C    0.3040631318    0.2819418881    0.7966610177
C550       C    0.3369515791    0.2878863432    0.8412564227
C551       C    0.3573231775    0.2534387405    0.8688737409
C552       C    0.3448063286    0.2130466828    0.8518956541
H553       H    0.3026521621    0.1772016136    0.7947320549
H554       H    0.2889845432    0.3074411594    0.7762193143
H555       H    0.3462172984    0.3177869573    0.8538246169
H556       H    0.3598849172    0.1875474115    0.8723373575
C537       C    0.3809737885    0.2398536524    0.2907176118
C538       C    0.3394449111    0.2428282690    0.3153269200
C539       C    0.3111244260    0.2505722665    0.2615372919
C540       C    0.3243328184    0.2553416474    0.1831383555
C541       C    0.3658616958    0.2523670308    0.1585290473
C542       C    0.3941821809    0.2446230333    0.2123186754
H543       H    0.4019383034    0.2341210828    0.3305359080
H544       H    0.2803840023    0.2527743122    0.2797513121
H545       H    0.3033683035    0.2610742170    0.1433200593
H546       H    0.4249226046    0.2424209876    0.1941046552
C527       C    0.2048020581    0.3364797637    0.8551924407
C528       C    0.1850317796    0.3547059824    0.7955199663
C529       C    0.1577270361    0.3876340255    0.8116912298
C530       C    0.1501925711    0.4023358499    0.8875349677
C531       C    0.1699628497    0.3841096312    0.9472074421
C532       C    0.1972675932    0.3511815881    0.9310361786
H533       H    0.2250146604    0.3121044591    0.8432215054
H534       H    0.1430922820    0.4011260499    0.7675223881
H535       H    0.1299799688    0.4267111545    0.8995059030
H536       H    0.2119023472    0.3376895637    0.9752050203
C517       C    0.1351513174    0.3661110859    0.2844358070
C518       C    0.1611373181    0.3707944950    0.2166837284
C519       C    0.1874357049    0.3383746358    0.1912693441
C520       C    0.1877480909    0.3012713676    0.2336070384
C521       C    0.1617620902    0.2965879585    0.3013591169
C522       C    0.1354637035    0.3290078176    0.3267735012
H523       H    0.1156836805    0.3901102024    0.3032490525
H524       H    0.2066712825    0.3418402526    0.1411186921
H525       H    0.2072157279    0.2772722511    0.2147937928
H526       H    0.1162281258    0.3255422009    0.3769241532
C507       C    0.6983241468    0.9444660467    0.5324496195
C508       C    0.6702070051    0.9672473888    0.4935623756
C509       C    0.6576615188    0.9524359092    0.4236475900
C510       C    0.6732331743    0.9148430876    0.3926200484
C511       C    0.7013503160    0.8920617455    0.4315072923
C512       C    0.7138958022    0.9068732250    0.5014220778
H513       H    0.7076110652    0.9554303887    0.5842047205
H514       H    0.6368489134    0.9692981089    0.3948611777
H515       H    0.6639462559    0.9038787456    0.3408649474
H516       H    0.7347084076    0.8900110253    0.5302084901
C497       C    0.6598373567    0.7924030708    0.7209784200
C498       C    0.6989350770    0.7988905178    0.7442885124
C499       C    0.7038857335    0.8095141533    0.8210946798
C500       C    0.6697386696    0.8136503418    0.8745907548
C501       C    0.6306409492    0.8071628948    0.8512806623
C502       C    0.6256902927    0.7965392592    0.7744744949
H503       H    0.6561725850    0.7845388211    0.6641219064
H504       H    0.7328258838    0.8143164748    0.8383511581
H505       H    0.6734034412    0.8215145915    0.9314472683
H506       H    0.5967501424    0.7917369378    0.7572180166
C487       C    0.6468106221    0.7573948877    0.1168018227
C488       C    0.6206069532    0.7917757251    0.1180623330
C489       C    0.6086023787    0.8117163271    0.1881234531
C490       C    0.6228014732    0.7972760917    0.2569240630
C491       C    0.6490051421    0.7628952544    0.2556635527
C492       C    0.6610097166    0.7429546524    0.1856024325
H493       H    0.6556971253    0.7426336629    0.0649383961
H494       H    0.5892061362    0.8371655318    0.1890586956
H495       H    0.6139149701    0.8120373166    0.3087874896
H496       H    0.6804059591    0.7175054477    0.1846671900
C477       C    0.9023681709    0.7867023857    0.6434216467
C478       C    0.8809822120    0.7506267583    0.6265944886
C479       C    0.9016036045    0.7170631610    0.5894453562
C480       C    0.9436109559    0.7195751912    0.5691233820
C481       C    0.9649969147    0.7556508186    0.5859505402
C482       C    0.9443755222    0.7892144159    0.6230996725
H483       H    0.8871029842    0.8115481655    0.6709216538
H484       H    0.8857744464    0.6903590477    0.5769887779
H485       H    0.9588761425    0.6947294114    0.5416233749
H486       H    0.9602046804    0.8159185292    0.6355562509
C467       C    0.7911816989    0.6759210495    0.1576733499
C468       C    0.7861672766    0.6666142636    0.2367295137
C469       C    0.7903657890    0.6255164443    0.2618382365
C470       C    0.7995787236    0.5937254108    0.2078907955
C471       C    0.8045931459    0.6030321967    0.1288346317
C472       C    0.8003946335    0.6441300160    0.1037259089
H473       H    0.7880737093    0.7063441105    0.1390863733
H474       H    0.7866542643    0.6186262938    0.3203561225
H475       H    0.8026867132    0.5633023498    0.2264777721
H476       H    0.8041061582    0.6510201665    0.0452080229
C457       C    0.7615897726    0.6257431888    0.7536802965
C458       C    0.7918740264    0.6206435870    0.6925560231
C459       C    0.8285295265    0.6008189363    0.7052980167
C460       C    0.8349007728    0.5860938873    0.7791642837
C461       C    0.8046165190    0.5911934891    0.8402885571
C462       C    0.7679610189    0.6110181398    0.8275465635
H463       H    0.7344551817    0.6404185795    0.7442479117
H464       H    0.8509469835    0.5970436017    0.6600544500
H465       H    0.8620353637    0.5714184965    0.7885966686
H466       H    0.7455435619    0.6147934743    0.8727901302
C447       C    0.8248880510    0.2344848617    0.3374065821
C448       C    0.8125898194    0.2628908203    0.2828749852
C449       C    0.8144806217    0.3057423828    0.2971402898
C450       C    0.8286696555    0.3201879866    0.3659371914
C451       C    0.8409678872    0.2917820279    0.4204687882
C452       C    0.8390770849    0.2489304655    0.4062034836
H453       H    0.8234883663    0.2027635752    0.3268465514
H454       H    0.8053775741    0.3267697286    0.2567766471
H455       H    0.8300693403    0.3519092731    0.3764972221
H456       H    0.8481801324    0.2279031197    0.4465671263
C437       C    0.8014007585    0.3038571064   -0.1798852742
C438       C    0.7626482101    0.2988969451   -0.2057543948
C439       C    0.7580386180    0.2980764243   -0.2851240183
C440       C    0.7921815744    0.3022160649   -0.3386245213
C441       C    0.8309341228    0.3071762263   -0.3127554008
C442       C    0.8355437149    0.3079967470   -0.2333857772
H443       H    0.8048130539    0.3044645049   -0.1211311373
H444       H    0.7293539735    0.2944049046   -0.3042747612
H445       H    0.7887692790    0.3016086665   -0.3973786582
H446       H    0.8642283594    0.3116682668   -0.2142350343
C427       C    0.5533172326    0.2333239665   -0.1364551141
C428       C    0.5806247263    0.2506548423   -0.0880659173
C429       C    0.5659228535    0.2704898016   -0.0193582507
C430       C    0.5239134870    0.2729938852    0.0009602190
C431       C    0.4966059934    0.2556630094   -0.0474289778
C432       C    0.5113078662    0.2358280500   -0.1161366444
H433       H    0.5642004372    0.2186409447   -0.1873166335
H434       H    0.5861352979    0.2833186820    0.0164614352
H435       H    0.5130302825    0.2876769070    0.0518217384
H436       H    0.4910954217    0.2229991697   -0.1519563303
C417       C    0.6345859191    0.0978536998   -0.1654257672
C418       C    0.6697534953    0.1206711860   -0.1540059285
C419       C    0.6985486301    0.1287692135   -0.2164495840
C420       C    0.6921761887    0.1140497548   -0.2903130783
C421       C    0.6570086126    0.0912322686   -0.3017329170
C422       C    0.6282134778    0.0831342411   -0.2392892615
H423       H    0.6132700401    0.0918590561   -0.1192012430
H424       H    0.7245804562    0.1456588920   -0.2079986361
H425       H    0.7134920678    0.1200443985   -0.3365376025
H426       H    0.6021816517    0.0662445627   -0.2477402094
C407       C    0.6677897704    0.1262225794    0.2765183591
C408       C    0.6754520615    0.1666442887    0.3018105526
C409       C    0.6739017780    0.1752793967    0.3810573155
C410       C    0.6646892034    0.1434927953    0.4350118848
C411       C    0.6570269123    0.1030710860    0.4097196913
C412       C    0.6585771958    0.0944359781    0.3304729285
H413       H    0.6689373829    0.1198303567    0.2178551710
H414       H    0.6795733295    0.2051996755    0.3997810152
H415       H    0.6635415909    0.1498850181    0.4936750729
H416       H    0.6529056443    0.0645156992    0.3117492288
C397       C    0.7528952054    0.4534262932    0.0280140834
C398       C    0.7914059711    0.4672175971    0.0449818430
C399       C    0.8143340817    0.4434247584    0.0929685591
C400       C    0.7987514267    0.4058406158    0.1239875156
C401       C    0.7602406610    0.3920493120    0.1070197561
C402       C    0.7373125504    0.4158421507    0.0590330400
H403       H    0.7359224482    0.4710391738   -0.0075085506
H404       H    0.8428403392    0.4536322795    0.1055295530
H405       H    0.8157241839    0.3882277353    0.1595101496
H406       H    0.7088062929    0.4056346296    0.0464720460
C387       C    0.2658576229    0.8303827000   -0.3190274603
C388       C    0.2765474051    0.8546837305   -0.2570026661
C389       C    0.2947736794    0.8936826920   -0.2708248155
C390       C    0.3023101715    0.9083806229   -0.3466717590
C391       C    0.2916203892    0.8840795923   -0.4086965531
C392       C    0.2733941149    0.8450806309   -0.3948744038
H393       H    0.2523654458    0.8015133389   -0.3087954796
H394       H    0.3026867951    0.9116714627   -0.2249147207
H395       H    0.3158023485    0.9372499840   -0.3569037396
H396       H    0.2654809993    0.8270918602   -0.4407844985
C377       C    0.2730774047    0.8288965559    0.2223695498
C378       C    0.2998240057    0.7965592290    0.2371693212
C379       C    0.3268825137    0.8013239606    0.2943007235
C380       C    0.3271944206    0.8384260190    0.3366323544
C381       C    0.3004478195    0.8707633459    0.3218325830
C382       C    0.2733893116    0.8659986143    0.2647011807
H383       H    0.2530470806    0.8253694169    0.1800774728
H384       H    0.3466811090    0.7773881370    0.3052572697
H385       H    0.3472247446    0.8419531580    0.3789244314
H386       H    0.2535907162    0.8899344379    0.2537446345
C367       C    0.4415736464    0.7822918517   -0.1517303894
C368       C    0.4104788583    0.7769751087   -0.0921546033
C369       C    0.4188128775    0.7819002883   -0.0150092500
C370       C    0.4582416847    0.7921422109    0.0025603173
C371       C    0.4893364728    0.7974589540   -0.0570154688
C372       C    0.4810024536    0.7925337744   -0.1341608221
H373       H    0.4354043075    0.7786459395   -0.2088379886
H374       H    0.3957968896    0.7779650098    0.0290909765
H375       H    0.4644110236    0.7957881231    0.0596679165
H376       H    0.5040184415    0.7964690528   -0.1782610486
C357       C    0.1471404491    0.7628256818    0.2728509978
C358       C    0.1221556435    0.7428320964    0.2231872802
C359       C    0.0839633561    0.7276057749    0.2519236755
C360       C    0.0707558742    0.7323730388    0.3303237882
C361       C    0.0957406798    0.7523666242    0.3799875058
C362       C    0.1339329672    0.7675929458    0.3512511106
H363       H    0.1754126619    0.7740971147    0.2515786014
H364       H    0.0654684832    0.7128061121    0.2151636776
H365       H    0.0424836615    0.7211016060    0.3515961847
H366       H    0.1524278401    0.7823926085    0.3880111084
C347       C    0.0972059607    0.7437954575   -0.2516646560
C348       C    0.1042814664    0.7534359962   -0.3303584931
C349       C    0.1442477251    0.7571325033   -0.3644539626
C350       C    0.1771384782    0.7511884719   -0.3198555951
C351       C    0.1700629726    0.7415479332   -0.2411617581
C352       C    0.1300967138    0.7378514260   -0.2070662885
H353       H    0.0676205484    0.7410590821   -0.2264251526
H354       H    0.1494862541    0.7642685128   -0.4227039401
H355       H    0.2067238906    0.7539248473   -0.3450950986
H356       H    0.1248581849    0.7307154166   -0.1488163110
C337       C    0.1783642835    0.5911731574    0.1911101344
C338       C    0.2131011354    0.6061200547    0.1474735297
C339       C    0.2339752318    0.5805558118    0.0918666756
C340       C    0.2201124763    0.5400446716    0.0798964263
C341       C    0.1853756244    0.5250977744    0.1235330310
C342       C    0.1645015280    0.5506620173    0.1791398851
H343       H    0.1629120303    0.6100973372    0.2322736498
H344       H    0.2596879868    0.5916186430    0.0595652561
H345       H    0.2355647295    0.5211204918    0.0387329109
H346       H    0.1387887730    0.5395991861    0.2114413046
loop_
_geom_bond_atom_site_label_1
_geom_bond_atom_site_label_2
_geom_bond_distance
_geom_bond_site_symmetry_2
_ccdc_geom_bond_type
C512       H516 1.140       .   S
C509       H514 1.140       .   S
C510       H515 1.140       .   S
C507       H513 1.140       .   S
O83        H120 0.990       .   S
Zr13        O28 2.233       .   S
O28         C29 1.209       .   S
O26         H62 0.989       .   S
Zr14        O26 2.116       .   S
O27         C29 1.209       .   D
Zr14        O27 2.233       .   S
Zr13        O22 2.107       .   S
O22        Zr31 2.107       .   S
O22         H47 0.986       .   S
Zr15        O22 2.107       .   S
Zr13        O20 2.107       .   S
O20         H46 0.988       .   S
Zr16        O20 2.107       .   S
Zr14        O20 2.107       .   S
Zr13        O21 2.107       .   S
O21        Zr31 2.107       .   S
Zr14        O21 2.107       .   S
C557       C562 1.540       .   A
C562       H566 1.140       .   S
C561       C562 1.540       .   A
C560       H565 1.140       .   S
C560       C561 1.540       .   A
C559       C560 1.540       .   A
C561       C292 1.988   1_455   S
C567       C568 1.540       .   A
C567       H573 1.140       .   S
C567       C572 1.540       .   A
O238       C242 1.209       .   S
Zr211      O238 2.233       .   S
O239       C242 1.209       .   D
Zr213      O239 2.233       .   S
O236       H255 0.990       .   S
O236       H259 0.989       .   S
Zr211      O236 2.122       .   S
O237       H251 0.991       .   S
O237       H258 0.989       .   S
Zr213      O237 2.120       .   S
C568       C235 2.172       .   S
C568       C569 1.540       .   A
C569       H574 1.140       .   S
C569       C570 1.540       .   A
O232       H249 0.991       .   S
Zr229      O232 2.116       .   S
Zr229      O233 2.126       .   S
O233       H262 0.988       .   S
O233       H253 0.991       .   S
Zr211      O230 2.233       .   S
O230       C235 1.209       .   S
O231       H248 0.991       .   S
Zr212      O231 2.120       .   S
O231       H263 0.989       .   S
Zr80        O99 2.120       .   S
Zr80        O86 2.107       .   S
Zr80        O87 2.107       .   S
Zr80        O93 2.233       .   S
Zr80        O92 2.116       .   S
O75        Zr80 2.107       .   S
O77        Zr80 2.107       .   S
O72        Zr80 2.233       .   S
Zr81        O88 2.107       .   S
Zr81        O85 2.107       .   S
Zr81        O83 2.110       .   S
O78        Zr81 2.107       .   S
O76        Zr81 2.107       .   S
O71        Zr81 2.233       .   S
Zr81       O105 2.120       .   S
Zr81       O107 2.233       .   S
Zr82        O84 2.122       .   S
Zr82        O85 2.107       .   S
Zr82        O86 2.107       .   S
Zr82       O108 2.115       .   S
Zr82       O109 2.120       .   S
O75        Zr82 2.107       .   S
O74        Zr82 2.233       .   S
O76        Zr82 2.107       .   S
C488       C489 1.540       .   A
C489       C490 1.540       .   A
C489       H494 1.140       .   S
C462       H466 1.140       .   S
C459       H464 1.140       .   S
C460       H465 1.140       .   S
C337       H343 1.140       .   S
C342       H346 1.140       .   S
C340       H345 1.140       .   S
C339       H344 1.140       .   S
C479       H484 1.140       .   S
C479       C480 1.540       .   A
C478       C479 1.540       .   A
O162       H191 0.990       .   S
O162      Zr163 2.122       .   S
Zr145      O160 2.233       .   S
O160       C161 1.209       .   S
C477       H483 1.140       .   S
Zr163      O166 2.116       .   S
O166       H183 0.991       .   S
O167       H187 0.991       .   S
O167       H196 0.988       .   S
Zr163      O167 2.126       .   S
Zr145      O164 2.233       .   S
O164       C169 1.209       .   S
Zr146      O165 2.120       .   S
O165       H197 0.989       .   S
O165       H182 0.991       .   S
Zr163      O168 2.233       .   S
O168       C169 1.209       .   D
O210      Zr229 2.107       .   S
O228      Zr229 2.122       .   S
Zr229      O234 2.233       .   S
O220      Zr229 2.107       .   S
O219      Zr229 2.107       .   S
O209      Zr229 2.108       .   S
Zr13        O38 2.122       .   S
Zr13        O32 2.233       .   S
Zr13        O19 2.107       .   S
Zr13        O40 2.233       .   S
O10        Zr16 2.107       .   S
Zr16        O19 2.107       .   S
Zr16        O18 2.122       .   S
O9         Zr16 2.107       .   S
O8         Zr16 2.233       .   S
Zr16        O42 2.115       .   S
Zr16        O43 2.120       .   S
Zr15        O17 2.110       .   S
Zr15        O39 2.120       .   S
O12        Zr15 2.107       .   S
O10        Zr15 2.107       .   S
Zr15        O19 2.107       .   S
Zr15        O41 2.233       .   S
O5         Zr15 2.233       .   S
O11        Zr14 2.107       .   S
Zr14        O33 2.120       .   S
O9         Zr14 2.107       .   S
O6         Zr14 2.233       .   S
O40         C44 1.209       .   S
O41         C44 1.209       .   D
C44        C378 1.354       .   S
C447       C452 1.540       .   A
C447       H453 1.140       .   S
C447       C448 1.540       .   A
C288       H291 1.140       .   S
C286       H290 1.140       .   S
O108       H118 0.991       .   S
O105       H119 0.991       .   S
O86        H112 0.988       .   S
O88        H113 0.986       .   S
O76        H111 0.985       .   S
O99        H116 0.991       .   S
O100       H117 0.991       .   S
O77        H114 0.988       .   S
O84        H115 0.991       .   S
C287       C348 1.423   1_556   S
C348       C349 1.540       .   A
C347       C348 1.540       .   A
C349       H354 1.140       .   S
C349       C350 1.540       .   A
C341       C342 1.540       .   A
C337       C342 1.540       .   A
C339       C340 1.540       .   A
C340       C341 1.540       .   A
C341       C265 2.172       .   S
C347       H353 1.140       .   S
C347       C352 1.540       .   A
C487       H493 1.140       .   S
Zr133      O135 2.233       .   S
Zr133      O134 2.118       .   S
Zr133      O136 2.233       .   S
Zr133      O139 2.233       .   S
Zr133      O144 2.107       .   S
Zr133      O141 2.107       .   S
Zr133      O142 2.107       .   S
Zr133      O143 2.107       .   S
C492       H496 1.140       .   S
C490       H495 1.140       .   S
C527       C532 1.540       .   A
C527       H533 1.140       .   S
C527       C528 1.540       .   A
C517       C522 1.540       .   A
C522       H526 1.140       .   S
C521       C522 1.540       .   A
C519       C520 1.540       .   A
C520       H525 1.140       .   S
C520       C521 1.540       .   A
C287       C288 1.540       .   A
C283       C288 1.540       .   A
C286       C287 1.540       .   A
C285       C286 1.540       .   A
C284       C285 1.540       .   A
C285       C361 2.128       .   S
C283       C284 1.540       .   A
C284       H289 1.140       .   S
C481       C283 1.715   1_655   S
C221       C528 1.881       .   S
C528       C529 1.540       .   A
C529       C530 1.540       .   A
C529       H534 1.140       .   S
O170       H189 0.990       .   S
O175       H188 0.989       .   S
O171       H185 0.991       .   S
O174       H184 0.991       .   S
O149       H186 0.990       .   S
O150       H181 0.991       .   S
O143       H180 0.988       .   S
C110       C438 1.120       .   S
O106       C110 1.209       .   S
O107       C110 1.209       .   D
O88        Zr97 2.107       .   S
Zr79        O88 2.107       .   S
O84        H129 0.989       .   S
Zr79        O85 2.107       .   S
Zr79        O86 2.107       .   S
O87        Zr97 2.107       .   S
Zr79        O87 2.107       .   S
C422       H426 1.140       .   S
C419       H424 1.140       .   S
C420       H425 1.140       .   S
C417       H423 1.140       .   S
C242       C521 1.354       .   S
C382       H386 1.140       .   S
C380       H385 1.140       .   S
C379       H384 1.140       .   S
C377       H383 1.140       .   S
O234       C235 1.209       .   D
O17         H54 0.990       .   S
O12        Zr31 2.107       .   S
Zr1         O12 2.107       .   S
O11        Zr31 2.108       .   S
O11         H48 0.988       .   S
Zr1         O11 2.107       .   S
O10         H45 0.985       .   S
Zr1         O10 2.107       .   S
C540       H545 1.140       .   S
C539       H544 1.140       .   S
C542       H546 1.140       .   S
O18         H63 0.989       .   S
O18         H49 0.991       .   S
C442       H446 1.140       .   S
C441       C442 1.540       .   A
C437       C442 1.540       .   A
C293       C294 1.540       .   A
C293       H298 1.140       .   S
C292       C293 1.540       .   A
C452       H456 1.140       .   S
C451       C452 1.540       .   A
C333       H336 1.140       .   S
C329       H334 1.140       .   S
C331       H335 1.140       .   S
C518       C519 1.540       .   A
C519       H524 1.140       .   S
C518       C269 1.354       .   S
C517       C518 1.540       .   A
C457       H463 1.140       .   S
C457       C458 1.540       .   A
C457       C462 1.540       .   A
Zr1          O9 2.107       .   S
Zr1          O7 2.233       .   S
Zr1          O4 2.233       .   S
Zr1          O3 2.233       .   S
Zr1          O2 2.118       .   S
O241       H254 0.989       .   S
O228       H257 0.990       .   S
O200       H256 0.991       .   S
O240       H250 0.991       .   S
O215       H252 0.990       .   S
C497       C502 1.540       .   A
C497       H503 1.140       .   S
C497       C498 1.540       .   A
C490       C491 1.540       .   A
C491       C155 1.965       .   S
C491       C492 1.540       .   A
C509       C510 1.540       .   A
C510       C511 1.540       .   A
C305       C306 1.540       .   A
C306       H309 1.140       .   S
C301       C306 1.540       .   A
C304       C305 1.540       .   A
C303       C304 1.540       .   A
C304       H308 1.140       .   S
C381       C305 1.354       .   S
C302       H307 1.140       .   S
C302       C303 1.540       .   A
C301       C302 1.540       .   A
C303       C391 1.881   1_556   S
C571       C301 2.172   1_545   S
Zr67        O68 2.118       .   S
Zr67        O69 2.233       .   S
Zr67        O78 2.107       .   S
Zr67        O75 2.107       .   S
Zr67        O77 2.107       .   S
Zr67        O76 2.107       .   S
Zr67        O70 2.233       .   S
Zr67        O73 2.233       .   S
O32         C37 1.209       .   S
C37        C338 2.172       .   S
O36         C37 1.209       .   D
C400       C401 1.540       .   A
C401       C402 1.540       .   A
C90        C401 1.639       .   S
C399       C400 1.540       .   A
C400       H405 1.140       .   S
C402       H406 1.140       .   S
C397       C402 1.540       .   A
O138       C157 1.209       .   S
C157       C468 1.444       .   S
O136       C157 1.209       .   D
O139       C156 1.209       .   S
C511       C156 1.639       .   S
O137       C156 1.209       .   D
O140       C155 1.209       .   S
O135       C155 1.209       .   D
C408       C409 1.540       .   A
C409       C410 1.540       .   A
C409       H414 1.140       .   S
C91        C408 1.444       .   S
C407       C408 1.540       .   A
O35         H55 0.991       .   S
O43         H56 0.989       .   S
O38         H57 0.990       .   S
O33         H50 0.991       .   S
O34         H51 0.991       .   S
O42         H52 0.991       .   S
O39         H53 0.991       .   S
C398       C399 1.540       .   A
C399       H404 1.140       .   S
C398       C274 1.639       .   S
C397       C398 1.540       .   A
O2          H58 0.991       .   S
O30         H59 0.990       .   S
C500       H505 1.140       .   S
C499       H504 1.140       .   S
C502       H506 1.140       .   S
C450       H455 1.140       .   S
C450       C451 1.540       .   A
C449       C450 1.540       .   A
O144      Zr163 2.107       .   S
O154      Zr163 2.107       .   S
O143      Zr163 2.108       .   S
O153      Zr163 2.107       .   S
C276       C277 1.540       .   A
C275       C276 1.540       .   A
C276       C471 1.444       .   S
C277       C278 1.540       .   A
C277       H281 1.140       .   S
C274       C275 1.540       .   A
C274       C279 1.540       .   A
C275       H280 1.140       .   S
C269       C270 1.540       .   A
C270       H273 1.140       .   S
C265       C270 1.540       .   A
C461       C278 2.051   1_556   S
C278       C279 1.540       .   A
C279       H282 1.140       .   S
C477       C482 1.540       .   A
C477       C478 1.540       .   A
C470       H475 1.140       .   S
C470       C471 1.540       .   A
C469       C470 1.540       .   A
C471       C472 1.540       .   A
C467       C472 1.540       .   A
C472       H476 1.140       .   S
C451       C294 1.965       .   S
O220       H245 0.986       .   S
Zr211      O220 2.107       .   S
Zr213      O220 2.107       .   S
O225       C227 1.209       .   D
Zr212      O225 2.233       .   S
O224       H260 0.989       .   S
Zr212      O224 2.116       .   S
O226       C227 1.209       .   S
Zr211      O226 2.233       .   S
C372       H376 1.140       .   S
C369       H374 1.140       .   S
C370       H375 1.140       .   S
O96        Zr97 2.122       .   S
O78        Zr97 2.107       .   S
Zr97       O100 2.116       .   S
Zr97       O101 2.126       .   S
O77        Zr97 2.108       .   S
Zr97       O102 2.233       .   S
C367       H373 1.140       .   S
C570       H575 1.140       .   S
C572       H576 1.140       .   S
C469       H474 1.140       .   S
C467       H473 1.140       .   S
C511       C512 1.540       .   A
Zr148      O175 2.120       .   S
Zr148      O174 2.115       .   S
O171       H192 0.989       .   S
Zr147      O171 2.120       .   S
Zr145      O170 2.122       .   S
O170       H193 0.989       .   S
Zr147      O173 2.233       .   S
O173       C176 1.209       .   D
Zr145      O172 2.233       .   S
O172       C176 1.209       .   S
C367       C368 1.540       .   A
C367       C372 1.540       .   A
C360       H365 1.140       .   S
C359       C360 1.540       .   A
C360       C361 1.540       .   A
C361       C362 1.540       .   A
C176       C498 1.121       .   S
C498       C499 1.540       .   A
C358       C359 1.540       .   A
C359       H364 1.140       .   S
C499       C500 1.540       .   A
C357       C358 1.540       .   A
C29        C358 2.128       .   S
C357       H363 1.140       .   S
C357       C362 1.540       .   A
C350       C351 1.540       .   A
C25        C351 1.423       .   S
C351       C352 1.540       .   A
C350       H355 1.140       .   S
C352       H356 1.140       .   S
O200       H264 0.989       .   S
C487       C492 1.540       .   A
O216       H261 0.989       .   S
C458       C161 2.051       .   S
C458       C459 1.540       .   A
C530       C531 1.540       .   A
C531       C532 1.540       .   A
C531       C267 1.881   1_556   S
C530       H535 1.140       .   S
C532       H536 1.140       .   S
C537       C538 1.540       .   A
C537       H543 1.140       .   S
C537       C542 1.540       .   A
C459       C460 1.540       .   A
C538       C539 1.540       .   A
C539       C540 1.540       .   A
C227       C538 2.128       .   S
C438       C439 1.540       .   A
C437       C438 1.540       .   A
C439       H444 1.140       .   S
C439       C440 1.540       .   A
O30        Zr31 2.122       .   S
C430       C431 1.540       .   A
C429       C430 1.540       .   A
C430       H435 1.140       .   S
C431       C319 1.715   1_554   S
C431       C432 1.540       .   A
C427       C432 1.540       .   A
C432       H436 1.140       .   S
C437       H443 1.140       .   S
C427       H433 1.140       .   S
C429       H434 1.140       .   S
Zr199      O210 2.107       .   S
Zr199      O202 2.233       .   S
Zr199      O201 2.233       .   S
Zr199      O200 2.118       .   S
Zr199      O207 2.107       .   S
Zr199      O205 2.233       .   S
Zr199      O209 2.107       .   S
Zr199      O208 2.107       .   S
C557       H563 1.140       .   S
C557       C558 1.540       .   A
O70         C91 1.209       .   D
O72         C91 1.209       .   S
O71         C90 1.209       .   D
O73         C90 1.209       .   S
O94         C95 1.209       .   S
O93         C95 1.209       .   D
C95        C418 2.051       .   S
O210      Zr213 2.107       .   S
C547       H553 1.140       .   S
C547       C548 1.540       .   A
C547       C552 1.540       .   A
C540       C541 1.540       .   A
Zr213      O215 2.110       .   S
Zr214      O216 2.122       .   S
O216       H247 0.991       .   S
Zr214      O217 2.107       .   S
Zr211      O217 2.107       .   S
Zr213      O217 2.107       .   S
Zr214      O218 2.107       .   S
Zr211      O218 2.107       .   S
Zr212      O218 2.107       .   S
O218       H244 0.988       .   S
Zr211      O219 2.107       .   S
Zr212      O219 2.107       .   S
O201       C221 1.209       .   D
O206       C221 1.209       .   S
C548       C549 1.540       .   A
C549       H554 1.140       .   S
C549       C550 1.540       .   A
O202       C223 1.209       .   D
C223       C548 1.423       .   S
O204       C223 1.209       .   S
O203       C222 1.209       .   D
O205       C222 1.209       .   S
C558       C222 1.988       .   S
O134       H198 0.989       .   S
O134       H190 0.991       .   S
O137      Zr147 2.233       .   S
O138      Zr146 2.233       .   S
C550       C551 1.540       .   A
C550       H555 1.140       .   S
C440       H445 1.140       .   S
C320       H325 1.140       .   S
C324       H327 1.140       .   S
C322       H326 1.140       .   S
C551       C323 1.423       .   S
C551       C552 1.540       .   A
O144      Zr147 2.107       .   S
C488       C332 1.965   1_554   S
C487       C488 1.540       .   A
O140      Zr148 2.233       .   S
O141      Zr148 2.107       .   S
O141      Zr146 2.107       .   S
O142      Zr147 2.107       .   S
O142      Zr148 2.107       .   S
O142       H177 0.985       .   S
O143      Zr146 2.107       .   S
C480       C481 1.540       .   A
C481       C482 1.540       .   A
C480       H485 1.140       .   S
C482       H486 1.140       .   S
Zr147      O149 2.110       .   S
C319       C320 1.540       .   A
C319       C324 1.540       .   A
C467       C468 1.540       .   A
C310       C311 1.540       .   A
C311       H316 1.140       .   S
C311       C312 1.540       .   A
C310       C315 1.540       .   A
C508       C310 1.639   1_565   S
C313       H317 1.140       .   S
C312       C313 1.540       .   A
C313       C314 1.540       .   A
C411       C312 1.444       .   S
C315       H318 1.140       .   S
C314       C315 1.540       .   A
C421       C314 2.051   1_554   S
Zr79        O98 2.233       .   S
Zr79        O94 2.233       .   S
Zr79       O104 2.122       .   S
Zr79       O106 2.233       .   S
O3          C23 1.209       .   D
C23        C388 1.881       .   S
O8          C23 1.209       .   S
O7          C24 1.209       .   S
O5          C24 1.209       .   D
C24        C368 1.988       .   S
O6          C25 1.209       .   S
O4          C25 1.209       .   D
C478       C169 1.715       .   S
C440       C441 1.540       .   A
O101       H130 0.988       .   S
O99        H131 0.989       .   S
O68        H132 0.989       .   S
O159       C161 1.209       .   D
C368       C369 1.540       .   A
C369       C370 1.540       .   A
O38         H61 0.989       .   S
O39         H60 0.989       .   S
O33         H65 0.989       .   S
O35         H64 0.988       .   S
C362       H366 1.140       .   S
O2          H66 0.989       .   S
Zr214      O241 2.120       .   S
Zr214      O240 2.115       .   S
C265       C266 1.540       .   A
C267       C268 1.540       .   A
C266       C267 1.540       .   A
C266       H271 1.140       .   S
C268       C269 1.540       .   A
C268       H272 1.140       .   S
C508       C509 1.540       .   A
C507       C508 1.540       .   A
C461       C462 1.540       .   A
C460       C461 1.540       .   A
C500       C501 1.540       .   A
C501       C502 1.540       .   A
C330       C501 1.121       .   S
C468       C469 1.540       .   A
C507       C512 1.540       .   A
C559       H564 1.140       .   S
C407       H413 1.140       .   S
C407       C412 1.540       .   A
C397       H403 1.140       .   S
O74         C89 1.209       .   S
O109       H122 0.989       .   S
O101       H121 0.991       .   S
O102       C103 1.209       .   D
O104       H127 0.989       .   S
O104       H123 0.990       .   S
O105       H126 0.989       .   S
Zr31        O34 2.116       .   S
Zr31        O36 2.233       .   S
Zr31        O35 2.126       .   S
C390       C391 1.540       .   A
C391       C392 1.540       .   A
C390       H395 1.140       .   S
C389       C390 1.540       .   A
C387       C392 1.540       .   A
C392       H396 1.140       .   S
O152       H178 0.988       .   S
O154       H179 0.986       .   S
C320       C321 1.540       .   A
C321       C322 1.540       .   A
C541       C321 2.128   1_554   S
C322       C323 1.540       .   A
C323       C324 1.540       .   A
C328       C333 1.540       .   A
C328       C329 1.540       .   A
C328       C371 1.988   1_556   S
C329       C330 1.540       .   A
C295       H299 1.140       .   S
C552       H556 1.140       .   S
C428       C429 1.540       .   A
C427       C428 1.540       .   A
C103       C428 1.715       .   S
C417       C422 1.540       .   A
C421       C422 1.540       .   A
C420       C421 1.540       .   A
C419       C420 1.540       .   A
C330       C331 1.540       .   A
C517       H523 1.140       .   S
O69         C89 1.209       .   D
C89        C448 1.965       .   S
O203      Zr213 2.233       .   S
O207      Zr214 2.107       .   S
O207      Zr212 2.107       .   S
O206      Zr214 2.233       .   S
O204      Zr212 2.233       .   S
O209       H246 0.988       .   S
O209      Zr212 2.107       .   S
O208      Zr214 2.107       .   S
O208       H243 0.985       .   S
O208      Zr213 2.107       .   S
C558       C559 1.540       .   A
C449       H454 1.140       .   S
C541       C542 1.540       .   A
Zr145      O154 2.107       .   S
Zr147      O154 2.107       .   S
Zr145      O153 2.107       .   S
Zr146      O153 2.107       .   S
Zr145      O152 2.107       .   S
Zr146      O152 2.107       .   S
Zr148      O152 2.107       .   S
Zr145      O151 2.107       .   S
Zr147      O151 2.107       .   S
Zr148      O151 2.107       .   S
Zr148      O150 2.122       .   S
O150       H195 0.989       .   S
Zr146      O159 2.233       .   S
Zr146      O158 2.116       .   S
O158       H194 0.989       .   S
O96        H125 0.990       .   S
O68        H124 0.991       .   S
C379       C380 1.540       .   A
C378       C379 1.540       .   A
C377       C378 1.540       .   A
C377       C382 1.540       .   A
C371       C372 1.540       .   A
C370       C371 1.540       .   A
C294       C295 1.540       .   A
C295       C296 1.540       .   A
C296       C297 1.540       .   A
C441       C296 1.120   1_554   S
C292       C297 1.540       .   A
C297       H300 1.140       .   S
C570       C571 1.540       .   A
C571       C572 1.540       .   A
O98        C103 1.209       .   S
O92        H128 0.989       .   S
C389       H394 1.140       .   S
C387       H393 1.140       .   S
C412       H416 1.140       .   S
C410       H415 1.140       .   S
C448       C449 1.540       .   A
C417       C418 1.540       .   A
C332       C333 1.540       .   A
C331       C332 1.540       .   A
C337       C338 1.540       .   A
C387       C388 1.540       .   A
C338       C339 1.540       .   A
C411       C412 1.540       .   A
C410       C411 1.540       .   A
C418       C419 1.540       .   A
C381       C382 1.540       .   A
C388       C389 1.540       .   A
C380       C381 1.540       .   A
