data_hwx_v1-6c_Zn_1_Ch_v2-3c_B_Ch_1B_4H_Ch
_audit_creation_date              2019-09-04
_audit_creation_method            'tobacco_3.0'
_symmetry_space_group_name_H-M    'P1'
_symmetry_Int_Tables_number       1
_symmetry_cell_setting            triclinic
loop_
_symmetry_equiv_pos_as_xyz
  x,y,z
_cell_length_a                    34.665302365018924
_cell_length_b                    33.98858938640022
_cell_length_c                    15.983738977749013
_cell_angle_alpha                 90.00090001709432
_cell_angle_beta                  83.23585958043226
_cell_angle_gamma                 89.99499193232845
loop_
_atom_site_label
_atom_site_type_symbol
_atom_site_fract_x
_atom_site_fract_y
_atom_site_fract_z
Zn1       Zn    0.2579580207    0.7000725297    0.0545022496
Zn2       Zn    0.2350080906    0.7404568296   -0.1115269886
Zn3       Zn    0.2091859753    0.7792310197    0.0667499004
Zn4       Zn    0.2978479133    0.7802396211   -0.0097251614
O5         O    0.2500000000    0.7500000000    0.0000000000
O6         O    0.2490336209    0.6556874843   -0.0151945419
O7         O    0.1849132006    0.7620614861   -0.1253474755
O8         O    0.1881713937    0.7514304369    0.1665341852
O9         O    0.2321671008    0.6853669912   -0.1372138892
O10        O    0.2240152800    0.6932547361    0.1575330576
O11        O    0.1659358344    0.7905576801    0.0056729995
O12        O    0.2919796592    0.8298433864    0.0481024269
O13        O    0.2708153263    0.7630386924   -0.1994420702
O14        O    0.2268196191    0.8291021381    0.1043060042
O15        O    0.3169980001    0.7922761346   -0.1246251726
O16        O    0.3392335593    0.7531488914    0.0362360131
O17        O    0.3099174056    0.6942319424    0.0834384628
C18        C    0.2387615874    0.6549806405   -0.0911114141
C19        C    0.1608359345    0.7814563086   -0.0715427005
C20        C    0.1975042405    0.7169321961    0.1937309146
C21        C    0.2612384126    0.8450193595    0.0911114141
C22        C    0.3024957595    0.7830678039   -0.1937309146
C23        C    0.3391640655    0.7185436914    0.0715427005
Zn24      Zn    0.8125584717    0.1013582988    0.8042328383
Zn25      Zn    0.7637869104    0.1805170944    0.8164799155
Zn26      Zn    0.8524488719    0.1815250830    0.7400049747
Zn27      Zn    0.7896088437    0.1417425613    0.6382032963
O28        O    0.8046007744    0.1512857594    0.7497302562
O29        O    0.7786156591    0.0945408176    0.9072636467
O30        O    0.7814208456    0.2303881466    0.8540357332
O31        O    0.8938343341    0.1544341534    0.7859663869
O32        O    0.7427721285    0.1527167431    0.9162643527
O33        O    0.8645178075    0.0955174301    0.8331691693
O34        O    0.8465809029    0.2311289445    0.7978322449
O35        O    0.8254162427    0.1643241165    0.5502881185
O36        O    0.7205368619    0.1918439500    0.7554028726
O37        O    0.8715990675    0.1935613604    0.6251049068
O38        O    0.7395140943    0.1633475040    0.6243825959
O39        O    0.7867675255    0.0866527129    0.6125167380
O40        O    0.8036338237    0.0569732335    0.7345363087
C41        C    0.7521047549    0.1182184750    0.9434613168
C42        C    0.8158397378    0.2463051474    0.8408410932
C43        C    0.8937646174    0.1198289911    0.8212732962
C44        C    0.8570967940    0.1843530438    0.5559991955
C45        C    0.7154369315    0.1827425277    0.6781872162
C46        C    0.7933618111    0.0562663713    0.6586194192
Zn47      Zn    0.7978603529    0.6210471679    0.4902682015
Zn48      Zn    0.7350177413    0.6608345877    0.3884662421
Zn49      Zn    0.7091979656    0.6220642104    0.5667406681
Zn50      Zn    0.7579628998    0.7012183163    0.5544985201
O51        O    0.7500097399    0.6512910705    0.4999934080
O52        O    0.8170122532    0.6090079769    0.3753679868
O53        O    0.6849249688    0.6392342052    0.3746430724
O54        O    0.7268358088    0.5721918710    0.6042948700
O55        O    0.7708275298    0.6382488206    0.3005509920
O56        O    0.7919961790    0.5714444192    0.5480931999
O57        O    0.6659493220    0.6107408134    0.5056617373
O58        O    0.7240189184    0.7080399818    0.6575287848
O59        O    0.7321719792    0.7159244525    0.3627819902
O60        O    0.6881802582    0.6498675030    0.6665258682
O61        O    0.7490349926    0.7456035395    0.4848035717
O62        O    0.8099214794    0.7070545971    0.5834367044
O63        O    0.8392431894    0.6481346664    0.5362321177
C64        C    0.8025096702    0.6182169797    0.3062621381
C65        C    0.6608491274    0.6198419618    0.4284462058
C66        C    0.7612560613    0.5562715160    0.5911005315
C67        C    0.6975098096    0.6843651614    0.6937246779
C68        C    0.7387634185    0.7463106251    0.4088862844
C69        C    0.8391703525    0.6827401793    0.5715406101
Zn70      Zn    0.2895986893    0.2595372570    0.1382085120
Zn71      Zn    0.3125436278    0.2999212795    0.3042406702
Zn72      Zn    0.2637789962    0.2207669822    0.3164830792
Zn73      Zn    0.3524414079    0.2197502234    0.2400107689
O74        O    0.3045906803    0.2499939355    0.2497357576
O75        O    0.2867527267    0.3146270793    0.1125240107
O76        O    0.2785995843    0.3067429240    0.4072708540
O77        O    0.2205304234    0.2094433300    0.2554041144
O78        O    0.3036155784    0.3443063824    0.2345455040
O79        O    0.2395060096    0.2379366465    0.1243853458
O80        O    0.2427611465    0.2485703044    0.4162681293
O81        O    0.3465774021    0.1701475186    0.2978359802
O82        O    0.3645021689    0.3057578142    0.3331789250
O83        O    0.2814170139    0.1708947619    0.3540375354
O84        O    0.3938241193    0.2468379513    0.2859746451
O85        O    0.3715933963    0.2077109770    0.1251106302
O86        O    0.3254085941    0.2369515368    0.0502934168
C87        C    0.2933440316    0.3450133345    0.1586281878
C88        C    0.2520905547    0.2830680345    0.4434668069
C89        C    0.2154302240    0.2185443653    0.1781885263
C90        C    0.3158373290    0.1549745365    0.3408433273
C91        C    0.3937511366    0.2814435058    0.3212829888
C92        C    0.3570908059    0.2169198365    0.0560047082
C93        C    0.2054785155    0.4872906383    0.8420920080
C94        C    0.2084348371    0.4602131462    0.9183183629
C95        C    0.2133155563    0.4155097423    0.9053950534
C96        C    0.2152399540    0.3978838305    0.8162453889
C97        C    0.2122836324    0.4249613227    0.7400190339
C98        C    0.2074029132    0.4696647265    0.7529423435
H99        H    0.2070103563    0.4732602271    0.9843240270
H100       H    0.2188529540    0.3647917004    0.8066787832
H101       H    0.2052143940    0.4897097757    0.6965032852
C102       C    0.8491219375    0.4139948446    0.9076361104
C103       C    0.8471975224    0.4316207757    0.9967857602
C104       C    0.8423167642    0.4763241780    1.0097090311
C105       C    0.8393604213    0.5034016493    0.9334826522
C106       C    0.8412848365    0.4857757182    0.8443330023
C107       C    0.8461655946    0.4410723159    0.8314097314
H108       H    0.8493860574    0.4115757420    1.0532248362
H109       H    0.8357473926    0.5364937783    0.9430492293
H110       H    0.8475900883    0.4280252206    0.7654040783
C111       C   -0.0049523656    0.7406502079    0.6145059315
C112       C    0.0144871497    0.7444879901    0.6959267667
C113       C    0.0583035712    0.7531383028    0.6909897109
C114       C    0.0826804774    0.7579508331    0.6046318201
C115       C    0.0632409620    0.7541130509    0.5232109849
C116       C    0.0194245405    0.7454627382    0.5281480406
H117       H   -0.0035584435    0.7409253984    0.7598659639
H118       H    0.1151160102    0.7643543113    0.6009771165
H119       H    0.0050346009    0.7426218518    0.4678635470
C120       C    0.0595535253    0.1606303382    0.1352245528
C121       C    0.0401139828    0.1567925772    0.0538037486
C122       C   -0.0037024514    0.1481423219    0.0587408618
C123       C   -0.0280793431    0.1433298277    0.1450987792
C124       C   -0.0086398006    0.1471675888    0.2265195834
C125       C    0.0351766336    0.1558178440    0.2215824702
H126       H    0.0581595653    0.1603551422   -0.0101354682
H127       H   -0.0605148854    0.1369263920    0.1487535254
H128       H    0.0495665933    0.1586587147    0.2818669409
C129       C    0.3491064021    0.9872806979    0.4076512928
C130       C    0.3461499998    0.9602031233    0.3314241511
C131       C    0.3412692698    0.9155007048    0.3443461306
C132       C    0.3393449420    0.8978758609    0.4334952517
C133       C    0.3423013443    0.9249534355    0.5097223934
C134       C    0.3471820744    0.9696558540    0.4968004139
H135       H    0.3475744289    0.9732494137    0.2654188893
H136       H    0.3357319340    0.8647844601    0.4430608729
H137       H    0.3493706533    0.9897009643    0.5532400546
C138       C    0.7054938499    0.9140047142    0.3420787179
C139       C    0.7074181904    0.9316295863    0.2529296202
C140       C    0.7122989449    0.9763320060    0.2400077019
C141       C    0.7152553590    1.0034095536    0.3162348814
C142       C    0.7133310185    0.9857846815    0.4053839792
C143       C    0.7084502640    0.9410822618    0.4183058975
H144       H    0.7052296027    0.9115844960    0.1964899515
H145       H    0.7188683850    1.0365009552    0.3066693056
H146       H    0.7070258256    0.9280359506    0.4843111420
C147       C    0.5595480367    0.2406408356    0.6352307922
C148       C    0.5351702790    0.2454533064    0.7215892419
C149       C    0.4913523014    0.2541035171    0.7265273087
C150       C    0.4719120816    0.2579412569    0.6451069256
C151       C    0.4962898393    0.2531287861    0.5587484759
C152       C    0.5401078169    0.2444785754    0.5538104091
H153       H    0.5495607401    0.2426124514    0.7818734008
H154       H    0.4394753968    0.2643446596    0.6487623776
H155       H    0.5581540405    0.2409160277    0.4898707982
C156       C    0.4950528134    0.6606448630    0.1144997320
C157       C    0.5194305423    0.6558323577    0.0281412583
C158       C    0.5632485082    0.6471820772    0.0232031384
C159       C    0.5826887451    0.6433443020    0.1046234921
C160       C    0.5583110162    0.6481568073    0.1909819658
C161       C    0.5144930503    0.6568070878    0.1959200857
H162       H    0.5050400686    0.6586732389   -0.0321428789
H163       H    0.6151254212    0.6369408476    0.1009680007
H164       H    0.4964468480    0.6603696611    0.2598597144
C395       C    0.2929855013    0.0891052957    0.4086253587
C396       C    0.3238418261    0.1146276100    0.3569172397
C397       C    0.3633281904    0.0966499316    0.3225391911
C398       C    0.3719582298    0.0531499387    0.3398692614
C399       C    0.3411019050    0.0276276244    0.3915773804
C400       C    0.3016155408    0.0456053029    0.4259554290
H401       H    0.2637553356    0.1024134473    0.4340740441
H402       H    0.3861691819    0.1155408890    0.2842639372
H403       H    0.4011883955    0.0398417872    0.3144205761
H404       H    0.2787745492    0.0267143455    0.4642306829
C385       C    0.1511784640    0.2298006774    0.1200248107
C386       C    0.1784085851    0.2047894409    0.1679843282
C387       C    0.1647219957    0.1645761153    0.2046660571
C388       C    0.1238052853    0.1493740261    0.1933882684
C389       C    0.0965751642    0.1743852626    0.1454287509
C390       C    0.1102617536    0.2145985882    0.1087470220
H391       H    0.1613100951    0.2595689833    0.0928708036
H392       H    0.1848772015    0.1460616144    0.2401666824
H393       H    0.1136736542    0.1196057202    0.2205422755
H394       H    0.0901065479    0.2331130891    0.0732463967
C375       C    0.4025036832    0.2535016221    0.4570842932
C376       C    0.4167248594    0.2750996131    0.3744869611
C377       C    0.4592416641    0.2888841370    0.3574184002
C378       C    0.4875372926    0.2810706698    0.4229471715
C379       C    0.4733161164    0.2594726787    0.5055445037
C380       C    0.4307993117    0.2456881549    0.5226130645
H381       H    0.3710302044    0.2432974941    0.4697194617
H382       H    0.4697694737    0.3048713294    0.2962796083
H383       H    0.5190107714    0.2912747978    0.4103120030
H384       H    0.4202715021    0.2297009625    0.5837518565
C365       C    0.4369792238    0.2253153240   -0.0222269342
C366       C    0.3934739384    0.2269961341   -0.0332794148
C367       C    0.3807162682    0.2371924869   -0.1197864722
C368       C    0.4114638835    0.2457080296   -0.1952410489
C369       C    0.4549691689    0.2440272196   -0.1841885683
C370       C    0.4677268391    0.2338308667   -0.0976815109
H371       H    0.4464232134    0.2177673745    0.0418107577
H372       H    0.3485134068    0.2384369392   -0.1279702168
H373       H    0.4020198939    0.2532559791   -0.2592787408
H374       H    0.4999297005    0.2325864144   -0.0894977663
C355       C    0.2401900190    0.3115499381    0.6185452029
C356       C    0.2412171335    0.3218267580    0.5244712428
C357       C    0.2332142081    0.3642914985    0.4976689603
C358       C    0.2241841682    0.3964794191    0.5649406379
C359       C    0.2231570537    0.3862025992    0.6590145981
C360       C    0.2311599791    0.3437378588    0.6858168806
H361       H    0.2461142625    0.2801150004    0.6383858536
H362       H    0.2339742213    0.3718997079    0.4280349011
H363       H    0.2182599247    0.4279143568    0.5450999872
H364       H    0.2303999659    0.3361296493    0.7554509398
C345       C    0.2900484967    0.3554810060    0.0067187996
C346       C    0.2749601439    0.3612075459    0.1004562749
C347       C    0.2382414412    0.3859880782    0.1257490959
C348       C    0.2166110912    0.4050420708    0.0573044417
C349       C    0.2316994440    0.3993155310   -0.0364330336
C350       C    0.2684181468    0.3745349986   -0.0617258547
H351       H    0.3172298741    0.3371369756   -0.0120044576
H352       H    0.2270719340    0.3902276269    0.1951340424
H353       H    0.1894297138    0.4233861013    0.0760276988
H354       H    0.2795876539    0.3702954499   -0.1311108012
C335       C    0.6903170324    0.7988492259    0.3711243652
C336       C    0.7307587868    0.7866576894    0.3928124371
C337       C    0.7625703886    0.8179661332    0.3971705731
C338       C    0.7539402360    0.8614661135    0.3798406372
C339       C    0.7134984816    0.8736576500    0.3581525652
C340       C    0.6816868798    0.8423492062    0.3537944292
H341       H    0.6667681844    0.7756728454    0.3678982125
H342       H    0.7925062382    0.8089429921    0.4132241448
H343       H    0.7774890841    0.8846424940    0.3830667898
H344       H    0.6517510303    0.8513723473    0.3377408575
C325       C    0.6407053981    0.6705831728    0.9490125903
C326       C    0.5996316066    0.6572582183    0.9339186824
C327       C    0.5893053674    0.6524486648    0.8433700002
C328       C    0.6200529197    0.6609640659    0.7679152259
C329       C    0.6611267112    0.6742890203    0.7830091339
C330       C    0.6714529504    0.6790985738    0.8735578160
H331       H    0.6483494972    0.6741434915    1.0160421343
H332       H    0.5589023662    0.6425854287    0.8321946776
H333       H    0.6124088206    0.6574037471    0.7008856820
H334       H    0.7018559517    0.6889618099    0.8847331386
C315       C    0.5989925437    0.6472027787    0.4017208705
C316       C    0.6378756842    0.6261858420    0.3752428537
C317       C    0.6484632122    0.6129824479    0.2832360690
C318       C    0.6201675999    0.6207959905    0.2177073011
C319       C    0.5812844594    0.6418129271    0.2441853179
C320       C    0.5706969314    0.6550163212    0.3361921026
H321       H    0.5911550229    0.6569767198    0.4698297890
H322       H    0.6772447097    0.5974253682    0.2636342233
H323       H    0.6280051207    0.6110220493    0.1495983826
H324       H    0.5419154339    0.6705734009    0.3557939483
C305       C    0.9508475256    0.6824337454    0.5959029051
C306       C    0.9580260093    0.7268962898    0.6043014553
C307       C    0.9242874771    0.7561577380    0.6014218210
C308       C    0.8833704612    0.7409566418    0.5901436365
C309       C    0.8761919775    0.6964940974    0.5817450863
C310       C    0.9099305098    0.6672326492    0.5846247206
H311       H    0.9758228028    0.6607726733    0.5980345824
H312       H    0.9295998974    0.7890696814    0.6076383068
H313       H    0.8583951841    0.7626177138    0.5880119592
H314       H    0.9046180894    0.6343207058    0.5784082348
C295       C    0.8371608716    0.5430047087    0.2447271855
C296       C    0.8133831363    0.5794583964    0.2252574771
C297       C    0.7986354820    0.5837242666    0.1385158762
C298       C    0.8076655629    0.5515364490    0.0712439837
C299       C    0.8314432981    0.5150827613    0.0907136920
C300       C    0.8461909525    0.5108168911    0.1774552929
H301       H    0.8480779663    0.5398468568    0.3089385004
H302       H    0.7810348201    0.6107072917    0.1241017221
H303       H    0.7967484681    0.5546943009    0.0070326687
H304       H    0.8637916143    0.4838338661    0.1918694470
C285       C    0.7855687210    0.5632939038    0.7295064775
C286       C    0.7796399764    0.5400774813    0.6492721607
C287       C    0.7953417043    0.4978071946    0.6374824501
C288       C    0.8169721768    0.4787533304    0.7059270564
C289       C    0.8229009214    0.5019697529    0.7861613731
C290       C    0.8071991935    0.5442400396    0.7979510837
H291       H    0.7739453640    0.5945848953    0.7382339256
H292       H    0.7909537655    0.4806211434    0.5780929209
H293       H    0.8285955339    0.4474623389    0.6971996083
H294       H    0.8115871323    0.5614260907    0.8573406130
C275       C    0.9352184461    0.0914278242    0.9170908299
C276       C    0.9167368448    0.1261725167    0.8744772654
C277       C    0.9265494817    0.1687303490    0.8973935145
C278       C    0.9548437199    0.1765434888    0.9629233281
C279       C    0.9733253212    0.1417987963    1.0055368926
C280       C    0.9635126843    0.0992409640    0.9826206435
H281       H    0.9279545460    0.0599239743    0.9001268533
H282       H    0.9128697766    0.1944495937    0.8658518307
H283       H    0.9621076199    0.2080473387    0.9798873047
H284       H    0.9771923893    0.0735217193    1.0141623273
C265       C    0.8811641024    0.1699110031    0.3777020510
C266       C    0.8934799495    0.1742764024    0.4667156865
C267       C    0.9365443438    0.1701257156    0.4802730249
C268       C    0.9672928910    0.1616096295    0.4048167279
C269       C    0.9549770438    0.1572442302    0.3158030925
C270       C    0.9119126495    0.1613949170    0.3022457540
H271       H    0.8492852650    0.1729835894    0.3676660992
H272       H    0.9456618530    0.1733568373    0.5461610306
H273       H    0.9991717283    0.1585370432    0.4148526798
H274       H    0.9027951404    0.1581637953    0.2363577483
C255       C    0.6509871700    0.2104557747    0.7450841931
C256       C    0.6784132390    0.1964934055    0.6679850435
C257       C    0.6649185531    0.1977293124    0.5796098546
C258       C    0.6239977982    0.2129275886    0.5683338153
C259       C    0.5965717292    0.2268899578    0.6454329649
C260       C    0.6100664151    0.2256540508    0.7338081538
H261       H    0.6609767427    0.2095408826    0.8105047874
H262       H    0.6852188048    0.1873944555    0.5225385413
H263       H    0.6140082255    0.2138424807    0.5029132209
H264       H    0.5897661634    0.2359889078    0.7908794671
C245       C    0.7595200086   -0.0022934612    0.6119556439
C246       C    0.7749773370    0.0400754933    0.6004468056
C247       C    0.7688037433    0.0633944810    0.5204928609
C248       C    0.7471728210    0.0443445140    0.4520477545
C249       C    0.7317154926    0.0019755595    0.4635565928
C250       C    0.7378890863   -0.0213434282    0.5435105376
H251       H    0.7640900715   -0.0195555690    0.6711423303
H252       H    0.7802450075    0.0947565685    0.5119715293
H253       H    0.7426027581    0.0616066218    0.3928610681
H254       H    0.7264478221   -0.0527055157    0.5520318691
C235       C    0.7308519773    0.0576224244    1.1858365947
C236       C    0.7231721220    0.0150890795    1.1590044172
C237       C    0.7245219946    0.0047418956    1.0649023318
C238       C    0.7335517225    0.0369280565    0.9976324240
C239       C    0.7412315778    0.0794614014    1.0244646016
C240       C    0.7398817052    0.0898085854    1.1185666869
H241       H    0.7298527210    0.0652820281    1.2554965800
H242       H    0.7188374357   -0.0267414626    1.0450382713
H243       H    0.7345509788    0.0292684528    0.9279724387
H244       H    0.7455662641    0.1212919436    1.1384307475
C225       C    0.7989508497    0.3585170399    0.9035490692
C226       C    0.8411141624    0.3736483112    0.8915650730
C227       C    0.8746441505    0.3452812674    0.8622546056
C228       C    0.8660108257    0.3017829522    0.8449281344
C229       C    0.8238475129    0.2866516808    0.8569121306
C230       C    0.7903175249    0.3150187247    0.8862225979
H231       H    0.7741299494    0.3795160204    0.9252464281
H232       H    0.9058543459    0.3564804829    0.8533831666
H233       H    0.8908317260    0.2807839717    0.8232307754
H234       H    0.7591073295    0.3038195092    0.8950940369
C215       C    0.2805034735    0.8482250315   -0.2998368208
C216       C    0.3133688513    0.8218245640   -0.2747341063
C217       C    0.3552639296    0.8276101522   -0.3169015461
C218       C    0.3642936302    0.8597962079   -0.3841717004
C219       C    0.3314282525    0.8861966753   -0.4092744149
C220       C    0.2895331741    0.8804110871   -0.3671069751
H221       H    0.2494902337    0.8439421934   -0.2686219627
H222       H    0.3795920913    0.8080688031   -0.2983219405
H223       H    0.3953068700    0.8640790459   -0.4153865585
H224       H    0.2652050124    0.8999524362   -0.3856865807
C205       C    0.2649308922    0.9002720676    0.1902254250
C206       C    0.2796228539    0.8612101164    0.1492837111
C207       C    0.3159458029    0.8411980809    0.1767870584
C208       C    0.3375767902    0.8602479966    0.2452321197
C209       C    0.3228848284    0.8993099478    0.2861738336
C210       C    0.2865618794    0.9193219833    0.2586704862
H211       H    0.2380424754    0.9150861719    0.1698658042
H212       H    0.3268218903    0.8122839302    0.1464830177
H213       H    0.3644652070    0.8454338924    0.2655917405
H214       H    0.2756857920    0.9482361341    0.2889745270
C195       C    0.4091418136    0.7341560256    0.0919423966
C196       C    0.3761877465    0.7047926813    0.0817450240
C197       C    0.3841543724    0.6602309329    0.0828238436
C198       C    0.4250750653    0.6450325288    0.0941000358
C199       C    0.4580291323    0.6743958732    0.1042974085
C200       C    0.4500625065    0.7189576216    0.1032185889
H201       H    0.4032444412    0.7671432939    0.0911437899
H202       H    0.3597621412    0.6384948795    0.0752758187
H203       H    0.4309724377    0.6120452606    0.0948986426
H204       H    0.4744547377    0.7406936749    0.1107666138
C185       C    0.1714184377    0.7221007887    0.3735636250
C186       C    0.1611212423    0.7270075569    0.2830142462
C187       C    0.1200754059    0.7404293918    0.2679215710
C188       C    0.0893267649    0.7489444583    0.3433782745
C189       C    0.0996239603    0.7440376901    0.4339276532
C190       C    0.1406697967    0.7306158552    0.4490203285
H191       H    0.2018030179    0.7121651447    0.3847361249
H192       H    0.1124521594    0.7440617890    0.2008967650
H193       H    0.0589421847    0.7588801023    0.3322057746
H194       H    0.1482930431    0.7269834580    0.5160451345
C175       C    0.0669852497    0.7808499773   -0.1729608107
C176       C    0.0812757402    0.7594828948   -0.2558061554
C177       C    0.1238602434    0.7459302232   -0.2731218395
C178       C    0.1521542561    0.7537446341   -0.2075921789
C179       C    0.1378637656    0.7751117166   -0.1247468342
C180       C    0.0952792624    0.7886643882   -0.1074311501
H181       H    0.0354616564    0.7908824744   -0.1601427069
H182       H    0.1344393613    0.7301139558   -0.3344442172
H183       H    0.1836778493    0.7437121370   -0.2204102827
H184       H    0.0847001444    0.8044806556   -0.0461087724
C165       C    0.1916023154    0.5964310219   -0.0712116605
C166       C    0.2307535712    0.6146338760   -0.1071828898
C167       C    0.2612713072    0.5893384935   -0.1604809325
C168       C    0.2526377875    0.5458402569   -0.1778077457
C169       C    0.2134865318    0.5276374028   -0.1418365163
C170       C    0.1829687958    0.5529327853   -0.0885384737
H171       H    0.1690112641    0.6151561752   -0.0317572653
H172       H    0.2902518933    0.6028113808   -0.1871083953
H173       H    0.2752288388    0.5271151036   -0.2172621409
H174       H    0.1539882096    0.5394598980   -0.0619110108
loop_
_geom_bond_atom_site_label_1
_geom_bond_atom_site_label_2
_geom_bond_distance
_geom_bond_site_symmetry_2
_ccdc_geom_bond_type
Zn26        O31 1.922       .   S
Zn26        O37 1.922       .   S
Zn26        O34 1.922       .   S
Zn26        O28 1.942       .   S
Zn27        O39 1.922       .   S
Zn27        O38 1.922       .   S
Zn27        O35 1.922       .   S
Zn27        O28 1.942       .   S
Zn24        O40 1.922       .   S
Zn24        O33 1.922       .   S
Zn24        O28 1.942       .   S
Zn24        O29 1.922       .   S
Zn25        O30 1.922       .   S
Zn25        O32 1.922       .   S
Zn25        O28 1.942       .   S
Zn25        O36 1.922       .   S
O29         C41 1.304       .   A
C249       C142 1.309   1_545   S
C248       C249 1.540       .   A
C249       C250 1.540       .   A
C247       C248 1.540       .   A
C248       H253 1.140       .   S
C239       C240 1.540       .   A
C240       H244 1.140       .   S
C235       C240 1.540       .   A
C246       C247 1.540       .   A
C247       H252 1.140       .   S
C46        C246 1.309       .   S
C245       C246 1.540       .   A
C245       C250 1.540       .   A
C245       H251 1.140       .   S
C338       H343 1.140       .   S
C337       H342 1.140       .   S
C335       H341 1.140       .   S
C340       H344 1.140       .   S
Zn48        O59 1.922       .   S
O59         C68 1.304       .   A
O58         C67 1.304       .   A
Zn50        O58 1.922       .   S
Zn48        O53 1.922       .   S
O53         C65 1.304       .   A
O52         C64 1.304       .   A
Zn47        O52 1.922       .   S
Zn48        O51 1.942       .   S
Zn49        O51 1.942       .   S
Zn50        O51 1.942       .   S
Zn47        O51 1.942       .   S
Zn49        O57 1.922       .   S
O57         C65 1.304       .   A
O56         C66 1.304       .   A
Zn47        O56 1.922       .   S
Zn48        O55 1.922       .   S
O55         C64 1.304       .   A
O54         C66 1.304       .   A
Zn49        O54 1.922       .   S
C200       H204 1.140       .   S
C197       H202 1.140       .   S
C198       H203 1.140       .   S
C195       H201 1.140       .   S
O35         C44 1.304       .   A
O37         C44 1.304       .   A
C44        C266 1.822       .   S
O38         C45 1.304       .   A
C45        C256 1.393       .   S
O36         C45 1.304       .   A
O39         C46 1.304       .   A
O40         C46 1.304       .   A
O32         C41 1.304       .   A
C41        C239 1.854       .   S
O30         C42 1.304       .   A
C42        C229 1.428       .   S
O34         C42 1.304       .   A
O31         C43 1.304       .   A
C43        C276 1.250       .   S
O33         C43 1.304       .   A
C285       H291 1.140       .   S
C114       H118 1.140       .   S
C116       H119 1.140       .   S
C290       H294 1.140       .   S
C107       H110 1.140       .   S
C112       H117 1.140       .   S
C348       H353 1.140       .   S
C348       C349 1.540       .   A
C347       C348 1.540       .   A
C349       C350 1.540       .   A
C349        C95 1.309   1_554   S
C339       C340 1.540       .   A
C335       C340 1.540       .   A
C346        C87 1.309       .   S
C346       C347 1.540       .   A
C345       C346 1.540       .   A
C347       H352 1.140       .   S
C345       H351 1.140       .   S
C345       C350 1.540       .   A
C288       C289 1.540       .   A
C289       C290 1.540       .   A
C289       C106 1.309       .   S
C287       C288 1.540       .   A
C288       H293 1.140       .   S
C286       C287 1.540       .   A
C287       H292 1.140       .   S
C285       C286 1.540       .   A
C66        C286 1.309       .   S
C285       C290 1.540       .   A
C280       H284 1.140       .   S
C275       C280 1.540       .   A
C279       C280 1.540       .   A
C115       C116 1.540       .   A
C111       C116 1.540       .   A
C114       C115 1.540       .   A
C115       C189 1.822       .   S
C113       C114 1.540       .   A
C113       C176 1.250   1_556   S
C112       C113 1.540       .   A
C111       C112 1.540       .   A
C111       C306 1.393   1_455   S
C177       H182 1.140       .   S
Zn73        O84 1.922       .   S
O84         C91 1.304       .   A
O85         C92 1.304       .   A
Zn73        O85 1.922       .   S
Zn70        O86 1.922       .   S
O86         C92 1.304       .   A
O80         C88 1.304       .   A
Zn72        O80 1.922       .   S
Zn73        O81 1.922       .   S
O81         C90 1.304       .   A
Zn71        O82 1.922       .   S
O82         C91 1.304       .   A
Zn72        O83 1.922       .   S
O83         C90 1.304       .   A
C380       H384 1.140       .   S
C378       H383 1.140       .   S
C377       H382 1.140       .   S
C375       H381 1.140       .   S
O17         C23 1.304       .   A
Zn1         O17 1.922       .   S
O16         C23 1.304       .   A
Zn4         O16 1.922       .   S
O15         C22 1.304       .   A
Zn4         O15 1.922       .   S
Zn3         O14 1.922       .   S
O14         C21 1.304       .   A
O13         C22 1.304       .   A
Zn2         O13 1.922       .   S
O12         C21 1.304       .   A
Zn4         O12 1.922       .   S
Zn3         O11 1.922       .   S
O11         C19 1.304       .   A
Zn1         O10 1.922       .   S
O10         C20 1.304       .   A
C225       C230 1.540       .   A
C229       C230 1.540       .   A
C230       H234 1.140       .   S
C236       C140 1.854   1_546   S
C236       C237 1.540       .   A
C235       C236 1.540       .   A
C237       H242 1.140       .   S
C237       C238 1.540       .   A
C235       H241 1.140       .   S
C238       H243 1.140       .   S
C238       C239 1.540       .   A
C327       H332 1.140       .   S
C328       H333 1.140       .   S
C325       H331 1.140       .   S
C330       H334 1.140       .   S
C250       H254 1.140       .   S
C150       H154 1.140       .   S
C152       H155 1.140       .   S
C148       H153 1.140       .   S
C307       C308 1.540       .   A
C308       H313 1.140       .   S
C308       C309 1.540       .   A
C69        C309 1.393       .   S
C309       C310 1.540       .   A
C306       C307 1.540       .   A
C305       C306 1.540       .   A
C307       H312 1.140       .   S
C305       C310 1.540       .   A
C305       H311 1.140       .   S
C295       C300 1.540       .   A
C300       H304 1.140       .   S
C299       C300 1.540       .   A
C151       C152 1.540       .   A
C147       C152 1.540       .   A
C150       C151 1.540       .   A
C379       C151 1.250       .   S
C149       C150 1.540       .   A
C157       H162 1.140       .   S
C157       C158 1.540       .   A
C156       C157 1.540       .   A
C199       C156 1.393       .   S
C156       C161 1.540       .   A
C159       H163 1.140       .   S
C158       C159 1.540       .   A
C159       C160 1.540       .   A
C326       C158 1.822   1_556   S
C390       H394 1.140       .   S
C385       C390 1.540       .   A
C389       C390 1.540       .   A
C395       C400 1.540       .   A
C395       H401 1.140       .   S
C395       C396 1.540       .   A
C397       C398 1.540       .   A
C397       H402 1.140       .   S
C396       C397 1.540       .   A
C90        C396 1.428       .   S
C399       C400 1.540       .   A
C399       C129 1.428   1_545   S
C398       C399 1.540       .   A
C398       H403 1.140       .   S
C276       C277 1.540       .   A
C275       C276 1.540       .   A
C277       H282 1.140       .   S
C277       C278 1.540       .   A
C275       H281 1.140       .   S
C269       C270 1.540       .   A
C270       H274 1.140       .   S
C265       C270 1.540       .   A
C278       H283 1.140       .   S
C278       C279 1.540       .   A
C279       C122 1.250   1_656   S
C166       C167 1.540       .   A
C167       H172 1.140       .   S
C167       C168 1.540       .   A
C165       C166 1.540       .   A
C165       C170 1.540       .   A
C165       H171 1.140       .   S
Zn3          O5 1.942       .   S
Zn3          O8 1.922       .   S
Zn2          O7 1.922       .   S
Zn2          O5 1.942       .   S
Zn2          O9 1.922       .   S
Zn1          O6 1.922       .   S
Zn1          O5 1.942       .   S
C367       H372 1.140       .   S
C368       H373 1.140       .   S
Zn4          O5 1.942       .   S
C205       H211 1.140       .   S
C208       H213 1.140       .   S
C207       H212 1.140       .   S
C210       H214 1.140       .   S
C185       C186 1.540       .   A
C185       H191 1.140       .   S
C185       C190 1.540       .   A
C357       C358 1.540       .   A
C358       C359 1.540       .   A
C358       H363 1.140       .   S
C98        H101 1.140       .   S
C96        H100 1.140       .   S
C105       H109 1.140       .   S
C103       H108 1.140       .   S
C355       H361 1.140       .   S
C355       C356 1.540       .   A
C355       C360 1.540       .   A
C356       C357 1.540       .   A
C357       H362 1.140       .   S
C88        C356 1.854       .   S
C350       H354 1.140       .   S
C260       H264 1.140       .   S
C359        C97 1.854       .   S
C359       C360 1.540       .   A
C255       H261 1.140       .   S
C257       H262 1.140       .   S
C258       H263 1.140       .   S
C129       C134 1.540       .   A
C129       C130 1.540       .   A
C122       C123 1.540       .   A
C121       C122 1.540       .   A
C123       H127 1.140       .   S
C123       C124 1.540       .   A
C120       C121 1.540       .   A
C389       C120 1.393       .   S
C120       C125 1.540       .   A
C121       H126 1.140       .   S
C269       C124 1.822   1_655   S
C124       C125 1.540       .   A
C125       H128 1.140       .   S
C93         C98 1.540       .   A
C169        C93 1.428   1_554   S
C93         C94 1.540       .   A
C92        C366 1.822       .   S
C91        C376 1.250       .   S
C97         C98 1.540       .   A
C96         C97 1.540       .   A
C95         C96 1.540       .   A
C94         C95 1.540       .   A
C94         H99 1.140       .   S
Zn71        O74 1.942       .   S
Zn71        O76 1.922       .   S
Zn71        O78 1.922       .   S
Zn70        O75 1.922       .   S
Zn70        O74 1.942       .   S
Zn70        O79 1.922       .   S
Zn73        O74 1.942       .   S
Zn72        O74 1.942       .   S
Zn72        O77 1.922       .   S
C228       C229 1.540       .   A
C228       H233 1.140       .   S
C227       C228 1.540       .   A
C225       C226 1.540       .   A
C225       H231 1.140       .   S
C227       H232 1.140       .   S
C226       C227 1.540       .   A
C102       C226 1.428       .   S
C215       C220 1.540       .   A
C220       H224 1.140       .   S
C219       C220 1.540       .   A
C168       H173 1.140       .   S
C320       H324 1.140       .   S
C315       H321 1.140       .   S
C318       H323 1.140       .   S
C317       H322 1.140       .   S
C215       H221 1.140       .   S
C217       H222 1.140       .   S
C218       H223 1.140       .   S
C141       H145 1.140       .   S
C139       H144 1.140       .   S
C143       H146 1.140       .   S
C319       C320 1.540       .   A
C318       C319 1.540       .   A
C160       C319 1.250       .   S
C317       C318 1.540       .   A
C310       H314 1.140       .   S
C315       C320 1.540       .   A
C315       C316 1.540       .   A
C316       C317 1.540       .   A
C65        C316 1.250       .   S
C22        C216 1.854       .   S
C196        C23 1.393       .   S
C20        C186 1.822       .   S
O8          C20 1.304       .   A
C21        C206 1.309       .   S
C168       C169 1.540       .   A
C169       C170 1.540       .   A
C18        C166 1.428       .   S
C130       H135 1.140       .   S
C132       H136 1.140       .   S
C134       H137 1.140       .   S
C160       C161 1.540       .   A
C161       H164 1.140       .   S
C367       C368 1.540       .   A
C368       C369 1.540       .   A
C149       C369 1.822   1_556   S
C369       C370 1.540       .   A
C365       C366 1.540       .   A
C365       H371 1.140       .   S
C365       C370 1.540       .   A
C366       C367 1.540       .   A
C360       H364 1.140       .   S
Zn49        O60 1.922       .   S
C186       C187 1.540       .   A
C187       H192 1.140       .   S
C187       C188 1.540       .   A
C179       C180 1.540       .   A
C180       H184 1.140       .   S
C175       C180 1.540       .   A
C188       H193 1.140       .   S
C188       C189 1.540       .   A
C189       C190 1.540       .   A
Zn47        O63 1.922       .   S
C259       C260 1.540       .   A
C255       C260 1.540       .   A
C265       H271 1.140       .   S
C265       C266 1.540       .   A
C267       C268 1.540       .   A
C267       H272 1.140       .   S
C266       C267 1.540       .   A
C268       C269 1.540       .   A
C268       H273 1.140       .   S
C400       H404 1.140       .   S
C215       C216 1.540       .   A
C216       C217 1.540       .   A
C217       C218 1.540       .   A
O79         C89 1.304       .   A
O78         C87 1.304       .   A
O75         C87 1.304       .   A
O77         C89 1.304       .   A
O76         C88 1.304       .   A
C218       C219 1.540       .   A
C133       C219 1.854   1_556   S
O61         C68 1.304       .   A
C336        C68 1.428       .   S
O62         C69 1.304       .   A
O63         C69 1.304       .   A
C67        C329 1.822       .   S
O60         C67 1.304       .   A
C64        C296 1.854       .   S
C170       H174 1.140       .   S
C325       C330 1.540       .   A
C325       C326 1.540       .   A
C326       C327 1.540       .   A
C327       C328 1.540       .   A
C328       C329 1.540       .   A
C329       C330 1.540       .   A
O7          C19 1.304       .   A
C179        C19 1.250       .   S
O6          C18 1.304       .   A
O9          C18 1.304       .   A
C133       C134 1.540       .   A
C130       C131 1.540       .   A
C131       C132 1.540       .   A
C209       C131 1.309       .   S
C132       C133 1.540       .   A
C139       C140 1.540       .   A
C138       C139 1.540       .   A
C339       C138 1.428       .   S
C138       C143 1.540       .   A
C205       C210 1.540       .   A
C209       C210 1.540       .   A
C89        C386 1.393       .   S
C258       C259 1.540       .   A
C257       C258 1.540       .   A
C147       C259 1.393       .   S
C255       C256 1.540       .   A
C256       C257 1.540       .   A
C178       C179 1.540       .   A
C178       H183 1.140       .   S
C177       C178 1.540       .   A
C175       H181 1.140       .   S
C175       C176 1.540       .   A
C176       C177 1.540       .   A
C379       C380 1.540       .   A
C378       C379 1.540       .   A
C377       C378 1.540       .   A
C376       C377 1.540       .   A
C375       C376 1.540       .   A
C375       C380 1.540       .   A
C370       H374 1.140       .   S
C196       C197 1.540       .   A
C197       C198 1.540       .   A
C195       C196 1.540       .   A
C195       C200 1.540       .   A
C190       H194 1.140       .   S
Zn50        O62 1.922       .   S
Zn50        O61 1.922       .   S
C198       C199 1.540       .   A
C199       C200 1.540       .   A
C297       C298 1.540       .   A
C298       H303 1.140       .   S
C298       C299 1.540       .   A
C104       C299 1.854   1_556   S
C295       C296 1.540       .   A
C295       H301 1.140       .   S
C296       C297 1.540       .   A
C297       H302 1.140       .   S
C104       C105 1.540       .   A
C103       C104 1.540       .   A
C105       C106 1.540       .   A
C106       C107 1.540       .   A
C102       C107 1.540       .   A
C102       C103 1.540       .   A
C385       H391 1.140       .   S
C387       H392 1.140       .   S
C388       H393 1.140       .   S
C206       C207 1.540       .   A
C207       C208 1.540       .   A
C205       C206 1.540       .   A
C208       C209 1.540       .   A
C337       C338 1.540       .   A
C336       C337 1.540       .   A
C335       C336 1.540       .   A
C338       C339 1.540       .   A
C140       C141 1.540       .   A
C141       C142 1.540       .   A
C142       C143 1.540       .   A
C147       C148 1.540       .   A
C148       C149 1.540       .   A
C386       C387 1.540       .   A
C385       C386 1.540       .   A
C387       C388 1.540       .   A
C388       C389 1.540       .   A
