data_hwx_v1-6c_Zr_1_Ch_v2-3c_triazine_Ch_1B_4H_Ch
_audit_creation_date              2019-09-04
_audit_creation_method            'tobacco_3.0'
_symmetry_space_group_name_H-M    'P1'
_symmetry_Int_Tables_number       1
_symmetry_cell_setting            triclinic
loop_
_symmetry_equiv_pos_as_xyz
  x,y,z
_cell_length_a                    36.24582328317255
_cell_length_b                    35.3101017624477
_cell_length_c                    19.098400653386207
_cell_angle_alpha                 90.00179749629893
_cell_angle_beta                  84.89279837764433
_cell_angle_gamma                 89.99178221354833
loop_
_atom_site_label
_atom_site_type_symbol
_atom_site_fract_x
_atom_site_fract_y
_atom_site_fract_z
Zr1       Zr    0.2739950684    0.7499253642   -0.1258304171
O2         O    0.2970171379    0.7073222358   -0.1945691665
O3         O    0.2760607979    0.8050654931   -0.1833287119
O4         O    0.2335586357    0.7410865958   -0.2059569681
O5         O    0.3595292133    0.7656944782   -0.0516254945
O6         O    0.1786209567    0.7341875646   -0.1484071034
O7         O    0.3346898704    0.7587039147   -0.1518644961
O8         O    0.2546589321    0.8486295261   -0.1079278673
O9         O    0.2267163253    0.7772551745   -0.0774068077
O10        O    0.2862538436    0.7876279426   -0.0455598771
O11        O    0.2362052206    0.7123065203   -0.0722070182
O12        O    0.2957408630    0.7226742581   -0.0403565178
Zr13      Zr    0.2260019819    0.7500734031    0.1258183189
Zr14      Zr    0.1863854966    0.7389190490   -0.0340351967
Zr15      Zr    0.3136137659    0.7610806428    0.0340321721
Zr16      Zr    0.2398579913    0.8194061451   -0.0055603656
O17        O    0.3529066739    0.7190555328    0.0529404731
O18        O    0.1906288135    0.8467474780   -0.0308164861
O19        O    0.2637959179    0.7876982019    0.0722004238
O20        O    0.2042583996    0.7773254337    0.0403534933
O21        O    0.2137454190    0.7123717492    0.0455568526
O22        O    0.2732829373    0.7227445174    0.0774037831
C23        C    0.2673374157    0.8367271025   -0.1643474204
C24        C    0.3595918226    0.7637679189   -0.1148180229
C25        C    0.2004420486    0.7360479394   -0.1999610446
O26        O    0.1454543967    0.7799682599   -0.0501452077
O27        O    0.1404700493    0.7343052136    0.0516224700
O28        O    0.1653093922    0.7412957771    0.1518614716
C29        C    0.1404096523    0.7362326975    0.1148240720
O30        O    0.2832465504    0.6500683991   -0.0835225953
Zr31      Zr    0.2601412713    0.6805935467    0.0055573410
O32        O    0.2239384647    0.6949341987    0.1833256874
O33        O    0.1584312605    0.6866939442   -0.0434914324
O34        O    0.2185823608    0.6405681085   -0.0124180244
O35        O    0.3083961073    0.6502273926    0.0277792232
O36        O    0.2453403305    0.6513701657    0.1079248428
C37        C    0.2326618469    0.6632725894    0.1643443959
O38        O    0.2069978642    0.7929378039    0.1981479242
O39        O    0.3398612053    0.8131172445    0.0542294261
O40        O    0.2664406269    0.7589130960    0.2059539436
O41        O    0.3213783058    0.7658121272    0.1484040789
O42        O    0.2796471546    0.8611236803    0.0132572953
O43        O    0.2238707909    0.8542999598    0.0822931832
C44        C    0.2995572140    0.7639517524    0.1999580201
H45        H    0.3040376575    0.8065867415   -0.0659818142
H46        H    0.1822201563    0.7916359086    0.0595293725
H47        H    0.2854936275    0.7090047259    0.1138768797
H48        H    0.2298865532    0.6932089720   -0.1069736285
H49        H    0.1961794746    0.8742207820   -0.0305938167
H50        H    0.1337160813    0.6935350539   -0.0579759356
H51        H    0.2271533883    0.6158903737    0.0047234685
H52        H    0.2701781263    0.8854384940   -0.0039623677
H53        H    0.3651354979    0.8062010900    0.0655997463
H54        H    0.3747454389    0.7329837256    0.0671993363
H55        H    0.3006700709    0.6234386282    0.0342049982
H56        H    0.1968884302    0.8512528228    0.0938390158
H57        H    0.2257184954    0.8133949821    0.1931836472
H58        H    0.3001975749    0.7192396534   -0.2416867172
H59        H    0.2775954756    0.6228431483   -0.0762865641
H60        H    0.3439313891    0.8268084308    0.0090362768
H61        H    0.1847653211    0.8044205614    0.1803331752
H62        H    0.1510691728    0.7902870905   -0.0980386235
H63        H    0.1880013514    0.8410404921   -0.0808218790
H64        H    0.3147097666    0.6579551265    0.0749798146
H65        H    0.1706084111    0.6733886968   -0.0848801560
H66        H    0.2775497729    0.6879838625   -0.1983520702
Zr67      Zr    0.7133098462    0.2686284897    0.1648574509
O68        O    0.6757322122    0.2991598007    0.2350143725
O69        O    0.7655255013    0.2591802330    0.2162652913
O70        O    0.6953717972    0.2286649602    0.2519211714
O71        O    0.7466845816    0.3524691189    0.0765035300
O72        O    0.6789778736    0.1755809932    0.2028796649
O73        O    0.7332251357    0.3275478792    0.1812843403
O74        O    0.8044675016    0.2301775731    0.1390955334
O75        O    0.7310792757    0.2164383241    0.1201863879
O76        O    0.7533652867    0.2746520185    0.0785994070
O77        O    0.6707719613    0.2387152362    0.1205854406
O78        O    0.6930528446    0.2969280750    0.0789956918
Zr79      Zr    0.7086335775    0.2237220392   -0.0804667814
Zr80      Zr    0.6871624968    0.1839761663    0.0866310052
Zr81      Zr    0.7347824178    0.3083765252   -0.0022498466
Zr82      Zr    0.7754185315    0.2223689684    0.0417665419
O83        O    0.7025914611    0.3563049003   -0.0223340483
O84        O    0.7914513372    0.1672392639    0.0712171803
O85        O    0.7511780810    0.2536383109   -0.0362015140
O86        O    0.7288920700    0.1954246165    0.0053854669
O87        O    0.6685796279    0.2177006730    0.0057817516
O88        O    0.6908656389    0.2759143674   -0.0358052293
C89        C    0.7945136967    0.2444892681    0.1950959177
C90        C    0.7436808981    0.3520694026    0.1400336599
C91        C    0.6841150752    0.1964567124    0.2512120419
O92        O    0.7181461298    0.1346295365    0.1042509342
O93        O    0.6752603330    0.1398835726    0.0078776286
O94        O    0.6887197789    0.1648048123   -0.0969031817
C95        C    0.6782655075    0.1402854515   -0.0556620122
O96        O    0.6201699897    0.2979716782    0.1318488582
Zr97      Zr    0.6465263831    0.2699837231    0.0426146167
O98        O    0.6564194133    0.2331724585   -0.1318841327
O99        O    0.6313939387    0.1659577435    0.1057330505
O100       O    0.5996127933    0.2358033280    0.0708997352
O101       O    0.6273447873    0.3246845684    0.0166697378
O102       O    0.6174774131    0.2621751184   -0.0547143748
C103       C    0.6274312179    0.2478634234   -0.1107147590
O104       O    0.7473211769    0.1972240924   -0.1548279534
O105       O    0.7902320113    0.3248595106   -0.0318511447
O106       O    0.7265731174    0.2636877314   -0.1675400127
O107       O    0.7429670410    0.3167716983   -0.1184985062
O108       O    0.8236208768    0.2544523232    0.0127098961
O109       O    0.8073460673    0.2006634847   -0.0477305950
C110       C    0.7378298394    0.2958959791   -0.1668308833
H111       H    0.7746763373    0.2885479942    0.0944751532
H112       H    0.7386186700    0.1707453214   -0.0122024126
H113       H    0.6807757921    0.2913473654   -0.0726383862
H114       H    0.6505700496    0.2356326102    0.1583875745
H115       H    0.8188939065    0.1674573606    0.0672463806
H116       H    0.6328076000    0.1395999849    0.1230667050
H117       H    0.5779591420    0.2494576847    0.0551384413
H118       H    0.8447478538    0.2399655624    0.0287175493
H119       H    0.7887991491    0.3517523102   -0.0461360195
H120       H    0.7205206478    0.3757166968   -0.0412583383
H121       H    0.6002521979    0.3222355852    0.0142165010
H122       H    0.7993122919    0.1743030897   -0.0550972666
H123       H    0.7705397474    0.2119739759   -0.1547395631
H124       H    0.6869155703    0.2994041265    0.2804994178
H125       H    0.5930833976    0.2977032711    0.1283322595
H126       H    0.8033273588    0.3256771209    0.0113869223
H127       H    0.7536139132    0.1724105423   -0.1350118591
H128       H    0.7282627953    0.1376212286    0.1503353837
H129       H    0.7845357267    0.1650496728    0.1223235200
H130       H    0.6368736776    0.3301459868   -0.0323723038
H131       H    0.6202740769    0.1802389917    0.1468920428
H132       H    0.6532772492    0.2833252861    0.2436796812
Zr133     Zr    0.7483104712    0.7686180384    0.3736678950
O134       O    0.7858846342    0.7991412818    0.3035130503
O135       O    0.6960962331    0.7591772440    0.3222587317
O136       O    0.7662537836    0.7286493084    0.2866023634
O137       O    0.7149250954    0.8524664898    0.4620256129
O138       O    0.7826539969    0.6755638262    0.3356414688
O139       O    0.7283880386    0.8275403549    0.3572436717
O140       O    0.6571574873    0.7301830572    0.3994264742
O141       O    0.7305472649    0.7164319768    0.4183360711
O142       O    0.7082539501    0.7746504562    0.4599256878
O143       O    0.7908518052    0.7386987655    0.4179390788
O144       O    0.7685636182    0.7969163885    0.4595314635
Zr145     Zr    0.7529911923    0.7237169794    0.6189901019
Zr146     Zr    0.7744678507    0.6839632986    0.4518905117
Zr147     Zr    0.7268323216    0.8083738823    0.5407769962
Zr148     Zr    0.6862069767    0.7223720311    0.4967555895
O149       O    0.7590172896    0.8562973651    0.5608641387
O150       O    0.6701810718    0.6672442733    0.4673018882
O151       O    0.7104432393    0.7536392717    0.5747256611
O152       O    0.7327365541    0.6954207923    0.5331360444
O153       O    0.7930462221    0.7176867247    0.5327418201
O154       O    0.7707529074    0.7759052041    0.5743314368
C155       C    0.6671097698    0.7444916732    0.3434269284
C156       C    0.7179290985    0.8520646704    0.3984954631
C157       C    0.7775144455    0.6964391904    0.2873100351
O158       O    0.7434903689    0.6346214206    0.4342675906
O159       O    0.7863750769    0.6398706910    0.5306418950
O160       O    0.7729121336    0.6647968260    0.6354238362
C161       C    0.7833695825    0.6402746735    0.5941815558
O162       O    0.8414465199    0.7979464387    0.4066794378
Zr163     Zr    0.8150931956    0.7699651498    0.4959119184
O164       O    0.8052039392    0.7331599369    0.6704087762
O165       O    0.8302386613    0.6659350423    0.4327884012
O166       O    0.8620110663    0.7357761747    0.4676257723
O167       O    0.8342679560    0.8246634320    0.5218598846
O168       O    0.8441426850    0.7621541237    0.5932410337
C169       C    0.8341904025    0.7478455077    0.6492405795
O170       O    0.7143065519    0.6972273922    0.6933493873
O171       O    0.6713806187    0.8248669120    0.5703782943
O172       O    0.7350463887    0.7636878725    0.7060651445
O173       O    0.7186461754    0.8167733547    0.6570260391
O174       O    0.6380006054    0.7544642013    0.5258131374
O175       O    0.6542817422    0.7006741545    0.5862511981
C176       C    0.7237857268    0.7958979905    0.7053574728
H177       H    0.6869412783    0.7885496062    0.4440503050
H178       H    0.7230129131    0.6707435709    0.5507225357
H179       H    0.7808406956    0.7913374374    0.6111655584
H180       H    0.8110542429    0.7356118000    0.3801370734
H181       H    0.6427384783    0.6674670721    0.4712722779
H182       H    0.8288283088    0.6395770840    0.4154533766
H183       H    0.8836629595    0.7494272970    0.4833881041
H184       H    0.6168754893    0.7399805804    0.5098044120
H185       H    0.6728101195    0.8517598312    0.5846645643
H186       H    0.7410856532    0.8757126450    0.5797891491
H187       H    0.8613608159    0.8222099671    0.5243134176
H188       H    0.6623187139    0.6743125975    0.5936166634
H189       H    0.6910861890    0.7119811675    0.6932613856
H190       H    0.7747014493    0.7993863379    0.2580278116
H191       H    0.8685331104    0.7976735776    0.4101964440
H192       H    0.6582853659    0.8256856299    0.5271400350
H193       H    0.7080169491    0.6724143983    0.6735319240
H194       H    0.7333735415    0.6376136491    0.3881831029
H195       H    0.6770971653    0.6650522358    0.4161955074
H196       H    0.8247381921    0.8301276831    0.5709020913
H197       H    0.8413569399    0.6802133896    0.3916302745
H198       H    0.8083415607    0.7833027832    0.2948472799
Zr199     Zr    0.1876290066    0.2499395218    0.6643562562
O200       O    0.1646143920    0.2073403801    0.7330916953
O201       O    0.1855552101    0.3050807031    0.7218598451
O202       O    0.2280678107    0.2410964657    0.7444801690
O203       O    0.1020913764    0.2657189937    0.5901564510
O204       O    0.2830060384    0.2341893595    0.6869275283
O205       O    0.1269329946    0.2587264860    0.6903935848
O206       O    0.2069493915    0.3486408745    0.6464624815
O207       O    0.2349029808    0.2772623981    0.6159334650
O208       O    0.1753633539    0.2876426438    0.5840900008
O209       O    0.2254242659    0.2123149332    0.6107278028
O210       O    0.1658865156    0.2226901482    0.5788807683
Zr211     Zr    0.2356193392    0.2500777841    0.4127060722
Zr212     Zr    0.2752394540    0.2389203290    0.5725566084
Zr213     Zr    0.1480066793    0.2610979016    0.5044966465
Zr214     Zr    0.2217538275    0.3194141434    0.5440917564
O215       O    0.1087201211    0.2190777545    0.4855859145
O216       O    0.2709790645    0.3467492793    0.5693484779
O217       O    0.1978199908    0.2877083281    0.4663290224
O218       O    0.2573596177    0.2773280824    0.4981724866
O219       O    0.2478827794    0.2123755869    0.4929632541
O220       O    0.1883431525    0.2227558326    0.4611197899
C221       C    0.1942733961    0.3367408975    0.7028812917
C222       C    0.1020297799    0.2637932969    0.6533486764
C223       C    0.2611851894    0.2360533296    0.7384824329
O224       O    0.3161643300    0.2799643216    0.5886688954
O225       O    0.3211547569    0.2342992369    0.4868968039
O226       O    0.2963131387    0.2412917446    0.3866596701
C227       C    0.3212141409    0.2362258584    0.4236955051
O228       O    0.1783928021    0.1500832125    0.6220392547
Zr229     Zr    0.2014923058    0.1806040872    0.5329614985
O230       O    0.2376909232    0.1949375276    0.3551934098
O231       O    0.3032020969    0.1866916385    0.5820066585
O232       O    0.2430578179    0.1405733716    0.5509312894
O233       O    0.1532419241    0.1502440417    0.5107386784
O234       O    0.2162967418    0.1513773561    0.4305907734
C235       C    0.2289727372    0.1632773331    0.3741719632
O236       O    0.2546159128    0.2929386834    0.3403799714
O237       O    0.1217507457    0.3131377171    0.4843055114
O238       O    0.1951783226    0.2589217649    0.3325730859
O239       O    0.1402400949    0.2658288712    0.3901257266
O240       O    0.1819577894    0.3611367095    0.5252797633
O241       O    0.2377345628    0.3543046473    0.4562410945
C242       C    0.1620609439    0.2639649010    0.3385708220
H243       H    0.1575767411    0.3066040810    0.6045144467
H244       H    0.2793954280    0.2916353710    0.4789971340
H245       H    0.1761341998    0.2090171697    0.4246459301
H246       H    0.2317463511    0.1932170155    0.6454922497
H247       H    0.2654240518    0.3742233179    0.5691286837
H248       H    0.3279164053    0.1935296614    0.5964907957
H249       H    0.2344904789    0.1158965432    0.5337877945
H250       H    0.1914231889    0.3854504987    0.5425013569
H251       H    0.0964773697    0.3062247658    0.4729355666
H252       H    0.0868789550    0.2330086553    0.4713293043
H253       H    0.1609721336    0.1234541639    0.5043100190
H254       H    0.2647173266    0.3512537704    0.4446938997
H255       H    0.2358920710    0.3133984154    0.3453469690
H256       H    0.1614325953    0.2192588572    0.7802104350
H257       H    0.1840481060    0.1228571129    0.6148003823
H258       H    0.1176788989    0.3268300552    0.5295000604
H259       H    0.2768468847    0.3044187289    0.3581948963
H260       H    0.3105484507    0.2902845456    0.6365634429
H261       H    0.2736079937    0.3410426204    0.6193531195
H262       H    0.1469265030    0.1579719761    0.4635391770
H263       H    0.2910274884    0.1733885679    0.6233945120
H264       H    0.1840848905    0.1879994720    0.7368719398
C265       C    0.1658520686    0.4679413049    0.1066464610
N266       N    0.1641320059    0.4455318242    0.0378400031
C267       C    0.1607952335    0.4020593759    0.0398430495
N268       N    0.1591785237    0.3809964082    0.1106525539
C269       C    0.1608985864    0.4034058888    0.1794590119
N270       N    0.1642353589    0.4468783372    0.1774559655
C271       C    0.8079717949    0.5072489926    0.0119681354
N272       N    0.8097614272    0.5298010836    0.0805977195
C273       C    0.8132102052    0.5732609348    0.0782564767
N274       N    0.8148693509    0.5941686950    0.0072856497
C275       C    0.8130797185    0.5716166040   -0.0613439344
N276       N    0.8096309406    0.5281567528   -0.0590026916
C277       C    0.0117830240    0.7584287873    0.5632987058
N278       N    0.0312913245    0.7585784564    0.6317068082
C279       C    0.0738967249    0.7589053279    0.6284259069
N280       N    0.0969938247    0.7590825305    0.5567369033
C281       C    0.0774855242    0.7589328615    0.4883288009
N282       N    0.0348801239    0.7586059899    0.4916097022
C283       C    0.9213731429    0.3107051866    0.5728875963
N284       N    0.8984189289    0.3105294681    0.6447256817
C285       C    0.8558056142    0.3102032557    0.6483284694
N286       N    0.8361465137    0.3100527619    0.5800931718
C287       C    0.8591007277    0.3102284804    0.5082550864
N288       N    0.9017140424    0.3105546928    0.5046522987
C289       C    0.2957667538    0.9679186142    0.4318878924
N290       N    0.2974866996    0.9455098248    0.5006931197
C291       C    0.3008234274    0.9020363459    0.4986876550
N292       N    0.3024402094    0.8809716563    0.4278769630
C293       C    0.3007202635    0.9033804457    0.3590717357
N294       N    0.2973835357    0.9468539246    0.3610772004
C295       C    0.6536568358    0.0072741635    0.5265469845
N296       N    0.6518673118    0.0298255885    0.4579186425
C297       C    0.6484185561    0.0732865078    0.4602623108
N298       N    0.6467593243    0.0941960021    0.5312343210
C299       C    0.6485488483    0.0716445771    0.5998626629
N300       N    0.6519976040    0.0281836578    0.5975189947
C301       C    0.4498403956    0.2584267152    0.9752257004
N302       N    0.4267432503    0.2586039882    1.0469147382
C303       C    0.3841377567    0.2589309898    1.0501957042
N304       N    0.3646294084    0.2590807184    0.9817876324
C305       C    0.3877265538    0.2589034454    0.9100985945
N306       N    0.4303320474    0.2585764438    0.9068176285
C307       C    0.5402270127    0.8106922623    0.9656518249
N308       N    0.5631812726    0.8105166128    0.8938137052
C309       C    0.6057946821    0.8101905285    0.8902108522
N310       N    0.6254538317    0.8100400937    0.9584461189
C311       C    0.6024995717    0.8102157432    1.0302842386
N312       N    0.5598861623    0.8105418275    1.0338870915
C543       C    0.2215764472    0.0724401922    0.3900224346
C544       C    0.2485161035    0.1061170186    0.3910591576
C545       C    0.2893094017    0.0992748000    0.4040666509
C546       C    0.3031630438    0.0587557551    0.4160374211
C547       C    0.2762233875    0.0250789287    0.4150006980
C548       C    0.2354300892    0.0319211473    0.4019932047
H549       H    0.1913788108    0.0775052112    0.3803935110
H550       H    0.3092513306    0.1242020507    0.4048344413
H551       H    0.3333606802    0.0536907362    0.4256663446
H552       H    0.2154881604    0.0069938967    0.4012254144
C533       C    0.0391528051    0.3188082893    0.6285793111
C534       C    0.0511374582    0.2770087261    0.6306821902
C535       C    0.0236861145    0.2454496785    0.6152210154
C536       C   -0.0157498823    0.2556901943    0.5976569616
C537       C   -0.0277345354    0.2974897575    0.5955540825
C538       C   -0.0002831917    0.3290488051    0.6110152573
H539       H    0.0594739296    0.3421701816    0.6400245964
H540       H    0.0325562434    0.2145087916    0.6167770697
H541       H   -0.0360710068    0.2323283019    0.5862116764
H542       H   -0.0091533206    0.3599896920    0.6094592030
C523       C    0.2847120335    0.2455822119    0.8600805116
C524       C    0.2915664433    0.2415394027    0.7796856727
C525       C    0.3313102813    0.2434355783    0.7438956748
C526       C    0.3641997096    0.2493745631    0.7885005158
C527       C    0.3573452999    0.2534173723    0.8688953547
C528       C    0.3176014618    0.2515211967    0.9046853526
H529       H    0.2552912703    0.2441785494    0.8865744062
H530       H    0.3363851488    0.2404431652    0.6843865681
H531       H    0.3936204728    0.2507782256    0.7620066213
H532       H    0.3125265943    0.2545136098    0.9641944593
C513       C    0.3377792961    0.2819738075    0.2802766985
C514       C    0.3394684971    0.2428126947    0.3153419351
C515       C    0.3543651498    0.2084173113    0.2720108413
C516       C    0.3675726014    0.2131830407    0.1936145108
C517       C    0.3658834005    0.2523441535    0.1585492742
C518       C    0.3509867478    0.2867395369    0.2018803680
H519       H    0.3267519039    0.3074353251    0.3123529627
H520       H    0.3556159617    0.1794293063    0.2979646335
H521       H    0.3785999937    0.1877215231    0.1615382465
H522       H    0.3497359359    0.3157275419    0.1759265758
C503       C    0.2113197812    0.3839575405    0.8244438478
C504       C    0.1850695447    0.3546983217    0.7955191695
C505       C    0.1512840783    0.3401409179    0.8424374923
C506       C    0.1437488484    0.3548427329    0.9182804933
C507       C    0.1699990848    0.3841019517    0.9472051716
C508       C    0.2037845512    0.3986593555    0.9002868489
H509       H    0.2363298018    0.3947338004    0.7897121024
H510       H    0.1318526773    0.3184828874    0.8210290330
H511       H    0.1187388278    0.3440664729    0.9530122388
H512       H    0.2232159522    0.4203173859    0.9216953081
C493       C    0.1315676090    0.3034144737    0.2509634996
C494       C    0.1617890287    0.2965849185    0.3013491263
C495       C    0.1917011849    0.3268558397    0.3094005436
C496       C    0.1913919214    0.3639563161    0.2670663342
C497       C    0.1611705016    0.3707858714    0.2166807076
C498       C    0.1312583454    0.3405149502    0.2086292903
H499       H    0.1094248440    0.2810061295    0.2450033595
H500       H    0.2140719191    0.3218015851    0.3466960601
H501       H    0.2135346864    0.3863646604    0.2730264743
H502       H    0.1088876113    0.3455692047    0.1713337737
C483       C    0.6696648297    0.9122688268    0.3978857274
C484       C    0.7013607531    0.8920751567    0.4315050654
C485       C    0.7174888906    0.9094757469    0.4961405618
C486       C    0.7019211046    0.9470700072    0.5271567202
C487       C    0.6702251812    0.9672636773    0.4935373822
C488       C    0.6540970437    0.9498630871    0.4289018858
H489       H    0.6577258189    0.8993878704    0.3500386716
H490       H    0.7409506108    0.8945290147    0.5210275219
H491       H    0.7138601154    0.9599509635    0.5750037760
H492       H    0.6306353235    0.9648098192    0.4040149257
C473       C    0.6598349615    0.7924225473    0.7209768858
C474       C    0.6989355216    0.7989081554    0.7442896173
C475       C    0.7038907645    0.8095298676    0.8210968940
C476       C    0.6697454473    0.8136659717    0.8745914392
C477       C    0.6306448873    0.8071803636    0.8512787077
C478       C    0.6256896444    0.7965586514    0.7744714310
H479       H    0.6561667947    0.7845597214    0.6641195511
H480       H    0.7328330170    0.8143308278    0.8383553257
H481       H    0.6734136142    0.8215287976    0.9314487739
H482       H    0.5967473919    0.7917576912    0.7572129993
C463       C    0.6765294324    0.7706413634    0.1910916613
C464       C    0.6490003310    0.7629133164    0.2556569087
C465       C    0.6072755694    0.7696256612    0.2514208308
C466       C    0.5930799091    0.7840660529    0.1826195056
C467       C    0.6206090105    0.7917940999    0.1180542582
C468       C    0.6623337721    0.7850817552    0.1222903361
H469       H    0.7074165936    0.7656724848    0.1942274593
H470       H    0.5868973060    0.7639056007    0.2992116634
H471       H    0.5621927480    0.7890349315    0.1794837077
H472       H    0.6827120355    0.7908018156    0.0744995036
C453       C    0.9077454772    0.7566007143    0.6838847652
C454       C    0.8809790852    0.7506337863    0.6265982702
C455       C    0.8962203213    0.7471702195    0.5489831477
C456       C    0.9382279493    0.7496735807    0.5286545201
C457       C    0.9649943413    0.7556405087    0.5859410151
C458       C    0.9497531052    0.7591040755    0.6635561377
H459       H    0.8964630038    0.7591646533    0.7413401157
H460       H    0.8764084154    0.7427534110    0.5065774314
H461       H    0.9495104227    0.7471096417    0.4711991696
H462       H    0.9695650111    0.7635208840    0.7059618540
C443       C    0.8287072643    0.6086137628    0.1904486944
C444       C    0.8045743869    0.6030612542    0.1288324715
C445       C    0.7712294480    0.6292975540    0.1211670330
C446       C    0.7620173865    0.6610863624    0.1751178174
C447       C    0.7861502639    0.6666388710    0.2367340403
C448       C    0.8194952028    0.6404025711    0.2443994788
H449       H    0.8533911801    0.5891920863    0.1961231099
H450       H    0.7533653226    0.6251884372    0.0755586812
H451       H    0.7373334707    0.6805080389    0.1694434019
H452       H    0.8373593281    0.6445116880    0.2900078306
C433       C    0.7705008669    0.6383148625    0.7578776689
C434       C    0.7918539530    0.6206678802    0.6925536856
C435       C    0.8195777366    0.5882986564    0.7010948274
C436       C    0.8259484341    0.5735764150    0.7749599525
C437       C    0.8045953481    0.5912233973    0.8402839358
C438       C    0.7768715645    0.6235926211    0.8317427940
H439       H    0.7499780660    0.6622764957    0.7515550054
H440       H    0.8353840924    0.5752353984    0.6527425174
H441       H    0.8464712350    0.5496147818    0.7812826159
H442       H    0.7610652087    0.6366558791    0.8800951040
C423       C    0.8240654409    0.3046726761    0.2894900143
C424       C    0.8126170647    0.2629155858    0.2828726058
C425       C    0.8153588360    0.2356017840    0.3450580936
C426       C    0.8295489835    0.2500450724    0.4138609898
C427       C    0.8409973597    0.2918021627    0.4204783982
C428       C    0.8382555884    0.3191159645    0.3582929105
H429       H    0.8220358180    0.3248919839    0.2434566013
H430       H    0.8068848755    0.2046924697    0.3401618793
H431       H    0.8315786065    0.2298257646    0.4598944028
H432       H    0.8467295490    0.3500252787    0.3631891247
C413       C    0.8010010215    0.3068461304   -0.1800190728
C414       C    0.7626744597    0.2989089608   -0.2057566348
C415       C    0.7584911650    0.2951124478   -0.2849887690
C416       C    0.7926344322    0.2992531044   -0.3384833411
C417       C    0.8309609940    0.3071902740   -0.3127457791
C418       C    0.8351442886    0.3109867870   -0.2335136449
H419       H    0.8040977461    0.3096565362   -0.1213667137
H420       H    0.7301218478    0.2892372629   -0.3040421284
H421       H    0.7895377076    0.2964426986   -0.3971357002
H422       H    0.8635136058    0.3168619719   -0.2144602855
C403       C    0.5184899942    0.2206801508   -0.0262854025
C404       C    0.4966271867    0.2556437869   -0.0474155503
C405       C    0.5167729992    0.2881087055   -0.0888746771
C406       C    0.5587816193    0.2856099879   -0.1092036562
C407       C    0.5806444268    0.2506463517   -0.0880735084
C408       C    0.5604986143    0.2181814332   -0.0466143815
H409       H    0.5035768602    0.1966476786    0.0044051200
H410       H    0.5005908644    0.3139896921   -0.1045164495
H411       H    0.5736947533    0.3096424601   -0.1398941786
H412       H    0.5766807491    0.1923004465   -0.0309726091
C393       C    0.6759056045    0.1298392373   -0.2932173347
C394       C    0.6570349300    0.0912461100   -0.3017667310
C395       C    0.6445365035    0.0673718870   -0.2364490709
C396       C    0.6509087513    0.0820907913   -0.1625820146
C397       C    0.6697794257    0.1206839186   -0.1540326183
C398       C    0.6822778523    0.1445581415   -0.2193502784
H399       H    0.6851576865    0.1475123634   -0.3415693688
H400       H    0.6305681018    0.0388046358   -0.2427752365
H401       H    0.6416566693    0.0644176652   -0.1142299805
H402       H    0.6962462539    0.1731253927   -0.2130241127
C383       C    0.7054260263    0.1377135957    0.3175800988
C384       C    0.6754787499    0.1666572254    0.3017891339
C385       C    0.6363195393    0.1638152398    0.3399462114
C386       C    0.6271076050    0.1320296245    0.3938942539
C387       C    0.6570548814    0.1030859948    0.4096852188
C388       C    0.6962140920    0.1059279804    0.3715281413
H389       H    0.7344140134    0.1398174033    0.2893339505
H390       H    0.6141514325    0.1852391217    0.3282590029
H391       H    0.5981196180    0.1299258169    0.4221404022
H392       H    0.7183821989    0.0845040985    0.3832153498
C373       C    0.7612070440    0.4274028468    0.1541070984
C374       C    0.7602543331    0.3920728707    0.1070198781
C375       C    0.7748736356    0.3943292215    0.0289136773
C376       C    0.7904456490    0.4319155484   -0.0021053031
C377       C    0.7913983600    0.4672455245    0.0449819172
C378       C    0.7767790574    0.4649891737    0.1230881180
H379       H    0.7503849629    0.4257325612    0.2119259743
H380       H    0.7741689050    0.3681781702   -0.0059425876
H381       H    0.8012677301    0.4335858340   -0.0599241790
H382       H    0.7774837880    0.4911402251    0.1579443829
C363       C    0.3127715878    0.8439950458   -0.3008236398
C364       C    0.2765436740    0.8546824735   -0.2569886751
C365       C    0.2478525077    0.8800691519   -0.2889949180
C366       C    0.2553892553    0.8947684025   -0.3648361256
C367       C    0.2916171691    0.8840809748   -0.4086710904
C368       C    0.3203083354    0.8586942964   -0.3766648475
H369       H    0.3340105031    0.8252023098   -0.2771307067
H370       H    0.2210358267    0.8879807513   -0.2565494458
H371       H    0.2341503400    0.9135611385   -0.3885290587
H372       H    0.3471250164    0.8507826970   -0.4091103197
C353       C    0.2678087573    0.8250794784    0.2348285321
C354       C    0.2998292643    0.7965656843    0.2371764990
C355       C    0.3321592458    0.8051523049    0.2818628448
C356       C    0.3324687202    0.8422527196    0.3242012237
C357       C    0.3004482132    0.8707665138    0.3218532567
C358       C    0.2681182317    0.8621798931    0.2771669110
H359       H    0.2438761736    0.8187231489    0.2017490294
H360       H    0.3558617344    0.7840467676    0.2836022158
H361       H    0.3564013039    0.8486090492    0.3572807264
H362       H    0.2444157431    0.8832854305    0.2754275400
C343       C    0.4187315202    0.7823015875   -0.0150447125
C344       C    0.4104771827    0.7769866174   -0.0921494765
C345       C    0.4416550801    0.7819151204   -0.1516878631
C346       C    0.4810873150    0.7921585937   -0.1341214856
C347       C    0.4893416525    0.7974735638   -0.0570167215
C348       C    0.4581637551    0.7925450607    0.0025216650
H349       H    0.3956517780    0.7786532151    0.0290291581
H350       H    0.4355462356    0.7779811544   -0.2087624196
H351       H    0.5041670573    0.7958069661   -0.1781953561
H352       H    0.4642725997    0.7964790268    0.0595962215
C333       C    0.0912587339    0.7713770341    0.2458374206
C334       C    0.1221552312    0.7428180625    0.2231785749
C335       C    0.1398440856    0.7190238080    0.2789175908
C336       C    0.1266364427    0.7237885249    0.3573154523
C337       C    0.0957399454    0.7523474964    0.3799742980
C338       C    0.0780510910    0.7761417510    0.3242352822
H339       H    0.0781643871    0.7889909628    0.2045760712
H340       H    0.1627141228    0.6978838057    0.2621473577
H341       H    0.1397307894    0.7061745962    0.3985768017
H342       H    0.0551810537    0.7972817533    0.3410055152
C323       C    0.1301327694    0.7405197110   -0.2060961099
C324       C    0.1700600386    0.7415357235   -0.2411632732
C325       C    0.1770966559    0.7484926461   -0.3208347322
C326       C    0.1442060040    0.7544335564   -0.3654390279
C327       C    0.1042787348    0.7534175439   -0.3303718645
C328       C    0.0972421176    0.7464606212   -0.2507004055
H329       H    0.1249238449    0.7353697812   -0.1471185363
H330       H    0.2066509013    0.7492449151   -0.3467938432
H331       H    0.1494149285    0.7595834862   -0.4244166014
H332       H    0.0676878721    0.7457083523   -0.2247412945
C313       C    0.2353152423    0.5718988573    0.1708825604
C314       C    0.2131142161    0.6061213171    0.1474627664
C315       C    0.1770559316    0.5998294070    0.1120756345
C316       C    0.1631986732    0.5593150370    0.1001082966
C317       C    0.1853996994    0.5250925771    0.1235280906
C318       C    0.2214579839    0.5313844872    0.1589152225
H319       H    0.2620077386    0.5765565050    0.1970782294
H320       H    0.1606216698    0.6251605511    0.0947392663
H321       H    0.1365061769    0.5546573892    0.0739126275
H322       H    0.2378922457    0.5060533431    0.1762515906
loop_
_geom_bond_atom_site_label_1
_geom_bond_atom_site_label_2
_geom_bond_distance
_geom_bond_site_symmetry_2
_ccdc_geom_bond_type
N304       C305 1.540       .   A
C303       N304 1.540       .   A
C305       N306 1.540       .   A
C301       N306 1.540       .   A
C295       N300 1.540       .   A
C299       N300 1.540       .   A
N268       C269 1.540       .   A
C267       N268 1.540       .   A
N302       C303 1.540       .   A
C301       N302 1.540       .   A
C265       N266 1.540       .   A
N266       C267 1.540       .   A
C416       H421 1.140       .   S
C307       N308 1.540       .   A
N308       C309 1.540       .   A
C508       H512 1.140       .   S
C505       H510 1.140       .   S
C506       H511 1.140       .   S
O83        H120 0.990       .   S
C513       H519 1.140       .   S
Zr13        O28 2.233       .   S
O28         C29 1.209       .   S
O26         H62 0.989       .   S
Zr14        O26 2.116       .   S
O27         C29 1.209       .   D
Zr14        O27 2.233       .   S
Zr13        O22 2.107       .   S
O22        Zr31 2.107       .   S
O22         H47 0.986       .   S
Zr15        O22 2.107       .   S
Zr13        O20 2.107       .   S
O20         H46 0.988       .   S
Zr16        O20 2.107       .   S
Zr14        O20 2.107       .   S
Zr13        O21 2.107       .   S
O21        Zr31 2.107       .   S
Zr14        O21 2.107       .   S
O238       C242 1.209       .   S
Zr211      O238 2.233       .   S
O239       C242 1.209       .   D
Zr213      O239 2.233       .   S
O236       H255 0.990       .   S
O236       H259 0.989       .   S
Zr211      O236 2.122       .   S
O237       H251 0.991       .   S
O237       H258 0.989       .   S
Zr213      O237 2.120       .   S
Zr229      O234 2.233       .   S
O234       C235 1.209       .   D
C375       H380 1.140       .   S
O232       H249 0.991       .   S
Zr229      O232 2.116       .   S
Zr229      O233 2.126       .   S
O233       H262 0.988       .   S
O233       H253 0.991       .   S
Zr211      O230 2.233       .   S
O230       C235 1.209       .   S
O231       H248 0.991       .   S
Zr212      O231 2.120       .   S
O231       H263 0.989       .   S
Zr80        O99 2.120       .   S
Zr80        O86 2.107       .   S
Zr80        O87 2.107       .   S
Zr80        O93 2.233       .   S
Zr80        O92 2.116       .   S
O75        Zr80 2.107       .   S
O77        Zr80 2.107       .   S
O72        Zr80 2.233       .   S
Zr81        O88 2.107       .   S
Zr81        O85 2.107       .   S
Zr81        O83 2.110       .   S
O78        Zr81 2.107       .   S
O76        Zr81 2.107       .   S
O71        Zr81 2.233       .   S
Zr81       O105 2.120       .   S
Zr81       O107 2.233       .   S
Zr82        O84 2.122       .   S
Zr82        O85 2.107       .   S
Zr82        O86 2.107       .   S
Zr82       O108 2.115       .   S
Zr82       O109 2.120       .   S
O75        Zr82 2.107       .   S
O74        Zr82 2.233       .   S
O76        Zr82 2.107       .   S
C458       H462 1.140       .   S
C478       H482 1.140       .   S
C477       C478 1.540       .   A
C473       C478 1.540       .   A
C455       H460 1.140       .   S
C456       H461 1.140       .   S
C338       H342 1.140       .   S
C336       H341 1.140       .   S
C463       H469 1.140       .   S
C476       H481 1.140       .   S
O162       H191 0.990       .   S
O162      Zr163 2.122       .   S
Zr145      O160 2.233       .   S
O160       C161 1.209       .   S
Zr163      O166 2.116       .   S
O166       H183 0.991       .   S
O167       H187 0.991       .   S
O167       H196 0.988       .   S
Zr163      O167 2.126       .   S
Zr145      O164 2.233       .   S
O164       C169 1.209       .   S
Zr146      O165 2.120       .   S
O165       H197 0.989       .   S
O165       H182 0.991       .   S
Zr163      O168 2.233       .   S
O168       C169 1.209       .   D
C538       H542 1.140       .   S
O210      Zr229 2.107       .   S
O228      Zr229 2.122       .   S
O220      Zr229 2.107       .   S
O219      Zr229 2.107       .   S
O209      Zr229 2.108       .   S
N284       C285 1.540       .   A
C283       N284 1.540       .   A
N286       C287 1.540       .   A
C285       N286 1.540       .   A
N280       C281 1.540       .   A
C279       N280 1.540       .   A
C277       N282 1.540       .   A
C281       N282 1.540       .   A
C287       N288 1.540       .   A
C283       N288 1.540       .   A
C156       C484 1.639       .   S
C483       C484 1.540       .   A
C484       C485 1.540       .   A
Zr13        O38 2.122       .   S
Zr13        O32 2.233       .   S
Zr13        O19 2.107       .   S
Zr13        O40 2.233       .   S
O10        Zr16 2.107       .   S
Zr16        O19 2.107       .   S
Zr16        O18 2.122       .   S
O9         Zr16 2.107       .   S
O8         Zr16 2.233       .   S
Zr16        O42 2.115       .   S
Zr16        O43 2.120       .   S
Zr15        O17 2.110       .   S
Zr15        O39 2.120       .   S
O12        Zr15 2.107       .   S
O10        Zr15 2.107       .   S
Zr15        O19 2.107       .   S
Zr15        O41 2.233       .   S
O5         Zr15 2.233       .   S
O11        Zr14 2.107       .   S
Zr14        O33 2.120       .   S
O9         Zr14 2.107       .   S
O6         Zr14 2.233       .   S
O40         C44 1.209       .   S
O41         C44 1.209       .   D
C44        C354 1.354       .   S
C313       C318 1.540       .   A
C317       C318 1.540       .   A
C318       H322 1.140       .   S
C157       C447 1.444       .   S
C447       C448 1.540       .   A
C446       C447 1.540       .   A
O108       H118 0.991       .   S
O105       H119 0.991       .   S
O86        H112 0.988       .   S
O88        H113 0.986       .   S
O76        H111 0.985       .   S
O99        H116 0.991       .   S
O100       H117 0.991       .   S
O77        H114 0.988       .   S
O84        H115 0.991       .   S
C343       C348 1.540       .   A
C348       H352 1.140       .   S
C347       C348 1.540       .   A
C343       H349 1.140       .   S
C343       C344 1.540       .   A
C346       H351 1.140       .   S
C346       C347 1.540       .   A
C345       C346 1.540       .   A
C307       C347 1.987   1_556   S
C24        C344 1.987       .   S
C344       C345 1.540       .   A
C345       H350 1.140       .   S
C488       H492 1.140       .   S
Zr133      O135 2.233       .   S
Zr133      O134 2.118       .   S
Zr133      O136 2.233       .   S
Zr133      O139 2.233       .   S
Zr133      O144 2.107       .   S
Zr133      O141 2.107       .   S
Zr133      O142 2.107       .   S
Zr133      O143 2.107       .   S
C485       H490 1.140       .   S
C493       H499 1.140       .   S
C526       C527 1.540       .   A
C525       C526 1.540       .   A
C526       H531 1.140       .   S
C305       C527 1.423       .   S
C527       C528 1.540       .   A
C524       C525 1.540       .   A
C223       C524 1.423       .   S
C523       C524 1.540       .   A
C525       H530 1.140       .   S
C523       H529 1.140       .   S
C523       C528 1.540       .   A
C289       N294 1.540       .   A
C289       C547 2.173   1_565   S
C289       N290 1.540       .   A
C287       C427 1.965       .   S
C417       C285 1.121   1_554   S
C537       C283 1.987   1_455   S
C528       H532 1.140       .   S
O170       H189 0.990       .   S
O175       H188 0.989       .   S
O171       H185 0.991       .   S
O174       H184 0.991       .   S
O149       H186 0.990       .   S
O150       H181 0.991       .   S
O143       H180 0.988       .   S
C414       C110 1.121       .   S
O106       C110 1.209       .   S
O107       C110 1.209       .   D
O88        Zr97 2.107       .   S
Zr79        O88 2.107       .   S
O84        H129 0.989       .   S
Zr79        O85 2.107       .   S
Zr79        O86 2.107       .   S
O87        Zr97 2.107       .   S
Zr79        O87 2.107       .   S
C418       H422 1.140       .   S
C415       H420 1.140       .   S
C242       C494 1.354       .   S
C378       H382 1.140       .   S
C376       H381 1.140       .   S
C423       H429 1.140       .   S
O17         H54 0.990       .   S
C543       H549 1.140       .   S
O12        Zr31 2.107       .   S
Zr1         O12 2.107       .   S
O11        Zr31 2.108       .   S
O11         H48 0.988       .   S
Zr1         O11 2.107       .   S
O10         H45 0.985       .   S
Zr1         O10 2.107       .   S
C536       H541 1.140       .   S
C535       H540 1.140       .   S
O18         H63 0.989       .   S
O18         H49 0.991       .   S
C235       C544 2.173       .   S
C291       C367 1.881   1_556   S
C367       C368 1.540       .   A
C366       C367 1.540       .   A
C328       H332 1.140       .   S
C325       H330 1.140       .   S
C326       H331 1.140       .   S
C383       H389 1.140       .   S
C453       C458 1.540       .   A
C453       H459 1.140       .   S
C453       C454 1.540       .   A
C333       H339 1.140       .   S
C513       C518 1.540       .   A
C518       H522 1.140       .   S
C517       C518 1.540       .   A
C365       C366 1.540       .   A
C366       H371 1.140       .   S
C456       C457 1.540       .   A
C455       C456 1.540       .   A
C457       C277 1.715   1_655   S
C457       C458 1.540       .   A
C454       C169 1.715       .   S
C454       C455 1.540       .   A
Zr1          O9 2.107       .   S
Zr1          O7 2.233       .   S
Zr1          O4 2.233       .   S
Zr1          O3 2.233       .   S
Zr1          O2 2.118       .   S
O241       H254 0.989       .   S
O228       H257 0.990       .   S
O200       H256 0.991       .   S
O240       H250 0.991       .   S
O215       H252 0.990       .   S
C496       H501 1.140       .   S
C496       C497 1.540       .   A
C495       C496 1.540       .   A
C269       C497 1.354       .   S
C497       C498 1.540       .   A
C494       C495 1.540       .   A
C493       C494 1.540       .   A
C495       H500 1.140       .   S
C309       C477 1.121       .   S
C309       N310 1.540       .   A
C307       N312 1.540       .   A
C303       C517 2.128   1_556   S
C301       C404 1.715   1_556   S
Zr67        O68 2.118       .   S
Zr67        O69 2.233       .   S
Zr67        O78 2.107       .   S
Zr67        O75 2.107       .   S
Zr67        O77 2.107       .   S
Zr67        O76 2.107       .   S
Zr67        O70 2.233       .   S
Zr67        O73 2.233       .   S
C513       C514 1.540       .   A
C514       C227 2.128       .   S
C514       C515 1.540       .   A
O32         C37 1.209       .   S
C37        C314 2.172       .   S
O36         C37 1.209       .   D
C403       C408 1.540       .   A
C403       C404 1.540       .   A
C403       H409 1.140       .   S
O138       C157 1.209       .   S
O136       C157 1.209       .   D
O139       C156 1.209       .   S
O137       C156 1.209       .   D
O140       C155 1.209       .   S
C464       C155 1.965       .   S
O135       C155 1.209       .   D
C406       H411 1.140       .   S
C405       C406 1.540       .   A
C406       C407 1.540       .   A
C408       H412 1.140       .   S
C407       C408 1.540       .   A
O35         H55 0.991       .   S
O43         H56 0.989       .   S
O38         H57 0.990       .   S
O33         H50 0.991       .   S
O34         H51 0.991       .   S
O42         H52 0.991       .   S
O39         H53 0.991       .   S
C393       C398 1.540       .   A
C398       H402 1.140       .   S
C397       C398 1.540       .   A
O2          H58 0.991       .   S
O30         H59 0.990       .   S
C277       N278 1.540       .   A
N278       C279 1.540       .   A
C269       N270 1.540       .   A
C265       N270 1.540       .   A
N272       C273 1.540       .   A
C271       N272 1.540       .   A
N274       C275 1.540       .   A
C273       N274 1.540       .   A
C275       N276 1.540       .   A
C271       N276 1.540       .   A
C498       H502 1.140       .   S
C503       H509 1.140       .   S
O144      Zr163 2.107       .   S
O154      Zr163 2.107       .   S
O143      Zr163 2.108       .   S
O153      Zr163 2.107       .   S
C275       C437 2.051   1_554   S
C444       C273 1.444       .   S
C377       C271 1.639       .   S
C279       C327 1.423   1_556   S
C474       C176 1.121       .   S
C474       C475 1.540       .   A
C473       C474 1.540       .   A
C475       C476 1.540       .   A
C476       C477 1.540       .   A
C473       H479 1.140       .   S
O220       H245 0.986       .   S
Zr211      O220 2.107       .   S
Zr213      O220 2.107       .   S
O225       C227 1.209       .   D
Zr212      O225 2.233       .   S
O224       H260 0.989       .   S
Zr212      O224 2.116       .   S
O226       C227 1.209       .   S
Zr211      O226 2.233       .   S
C335       H340 1.140       .   S
O96        Zr97 2.122       .   S
O78        Zr97 2.107       .   S
Zr97       O100 2.116       .   S
Zr97       O101 2.126       .   S
O77        Zr97 2.108       .   S
Zr97       O102 2.233       .   S
C365       H370 1.140       .   S
C373       H379 1.140       .   S
C466       H471 1.140       .   S
C465       H470 1.140       .   S
C468       H472 1.140       .   S
C413       H419 1.140       .   S
C23        C364 1.881       .   S
C364       C365 1.540       .   A
C363       C364 1.540       .   A
Zr148      O175 2.120       .   S
Zr148      O174 2.115       .   S
O171       H192 0.989       .   S
Zr147      O171 2.120       .   S
Zr145      O170 2.122       .   S
O170       H193 0.989       .   S
Zr147      O173 2.233       .   S
O173       C176 1.209       .   D
Zr145      O172 2.233       .   S
O172       C176 1.209       .   S
C295       N296 1.540       .   A
N296       C297 1.540       .   A
C293       N294 1.540       .   A
C291       N292 1.540       .   A
N292       C293 1.540       .   A
N290       C291 1.540       .   A
C297       N298 1.540       .   A
N298       C299 1.540       .   A
C363       H369 1.140       .   S
C363       C368 1.540       .   A
C405       H410 1.140       .   S
C493       C498 1.540       .   A
C357       C358 1.540       .   A
C358       H362 1.140       .   S
C353       C358 1.540       .   A
C354       C355 1.540       .   A
C355       C356 1.540       .   A
C355       H360 1.140       .   S
C353       C354 1.540       .   A
C356       C357 1.540       .   A
C293       C357 1.354       .   S
C356       H361 1.140       .   S
C353       H359 1.140       .   S
O200       H264 0.989       .   S
O216       H261 0.989       .   S
C333       C334 1.540       .   A
C29        C334 2.128       .   S
C334       C335 1.540       .   A
C533       C538 1.540       .   A
C533       C534 1.540       .   A
C533       H539 1.140       .   S
C534       C535 1.540       .   A
C535       C536 1.540       .   A
C222       C534 1.987       .   S
C536       C537 1.540       .   A
C537       C538 1.540       .   A
C433       C438 1.540       .   A
C438       H442 1.140       .   S
C437       C438 1.540       .   A
O30        Zr31 2.122       .   S
C433       H439 1.140       .   S
C433       C434 1.540       .   A
C161       C434 2.051       .   S
C434       C435 1.540       .   A
C516       H521 1.140       .   S
C436       H441 1.140       .   S
C435       C436 1.540       .   A
C436       C437 1.540       .   A
C515       H520 1.140       .   S
C426       H431 1.140       .   S
C425       H430 1.140       .   S
C428       H432 1.140       .   S
Zr199      O210 2.107       .   S
Zr199      O202 2.233       .   S
Zr199      O201 2.233       .   S
Zr199      O200 2.118       .   S
Zr199      O207 2.107       .   S
Zr199      O205 2.233       .   S
Zr199      O209 2.107       .   S
Zr199      O208 2.107       .   S
C91        C384 1.444       .   S
O70         C91 1.209       .   D
O72         C91 1.209       .   S
C90        C374 1.639       .   S
O71         C90 1.209       .   D
O73         C90 1.209       .   S
O94         C95 1.209       .   S
O93         C95 1.209       .   D
C95        C397 2.051       .   S
C543       C544 1.540       .   A
C544       C545 1.540       .   A
C545       C546 1.540       .   A
C545       H550 1.140       .   S
C546       C547 1.540       .   A
C546       H551 1.140       .   S
C547       C548 1.540       .   A
Zr213      O215 2.110       .   S
Zr214      O216 2.122       .   S
O216       H247 0.991       .   S
C543       C548 1.540       .   A
Zr214      O218 2.107       .   S
Zr211      O218 2.107       .   S
Zr212      O218 2.107       .   S
O218       H244 0.988       .   S
Zr211      O219 2.107       .   S
Zr212      O219 2.107       .   S
O201       C221 1.209       .   D
C504       C221 1.881       .   S
O206       C221 1.209       .   S
O202       C223 1.209       .   D
O204       C223 1.209       .   S
O203       C222 1.209       .   D
O205       C222 1.209       .   S
O134       H198 0.989       .   S
O134       H190 0.991       .   S
O137      Zr147 2.233       .   S
O138      Zr146 2.233       .   S
C435       H440 1.140       .   S
C387       C388 1.540       .   A
C383       C388 1.540       .   A
C388       H392 1.140       .   S
C316       H321 1.140       .   S
C443       H449 1.140       .   S
C393       H399 1.140       .   S
O144      Zr147 2.107       .   S
C483       C488 1.540       .   A
C487       C488 1.540       .   A
O140      Zr148 2.233       .   S
O141      Zr148 2.107       .   S
O141      Zr146 2.107       .   S
O142      Zr147 2.107       .   S
O142      Zr148 2.107       .   S
O142       H177 0.985       .   S
O143      Zr146 2.107       .   S
C483       H489 1.140       .   S
C485       C486 1.540       .   A
Zr147      O149 2.110       .   S
C295       C487 1.639   1_545   S
C486       C487 1.540       .   A
C486       H491 1.140       .   S
C311       C467 1.965   1_556   S
C466       C467 1.540       .   A
C467       C468 1.540       .   A
C311       N312 1.540       .   A
N310       C311 1.540       .   A
C313       C314 1.540       .   A
C313       H319 1.140       .   S
C315       H320 1.140       .   S
C314       C315 1.540       .   A
C315       C316 1.540       .   A
C265       C317 2.172       .   S
C316       C317 1.540       .   A
Zr79        O98 2.233       .   S
Zr79        O94 2.233       .   S
Zr79       O104 2.122       .   S
Zr79       O106 2.233       .   S
O3          C23 1.209       .   D
O8          C23 1.209       .   S
O7          C24 1.209       .   S
O5          C24 1.209       .   D
O6          C25 1.209       .   S
O4          C25 1.209       .   D
C25        C324 1.423       .   S
O101       H130 0.988       .   S
O99        H131 0.989       .   S
O68        H132 0.989       .   S
O159       C161 1.209       .   D
C368       H372 1.140       .   S
O38         H61 0.989       .   S
O39         H60 0.989       .   S
O33         H65 0.989       .   S
O35         H64 0.988       .   S
O2          H66 0.989       .   S
Zr214      O241 2.120       .   S
Zr214      O240 2.115       .   S
C267       C507 1.881   1_554   S
C503       C508 1.540       .   A
C507       C508 1.540       .   A
C465       C466 1.540       .   A
C464       C465 1.540       .   A
C463       C464 1.540       .   A
C463       C468 1.540       .   A
C503       C504 1.540       .   A
C504       C505 1.540       .   A
C505       C506 1.540       .   A
C506       C507 1.540       .   A
C404       C405 1.540       .   A
C103       C407 1.715       .   S
C395       H400 1.140       .   S
C396       H401 1.140       .   S
O74         C89 1.209       .   S
O109       H122 0.989       .   S
O101       H121 0.991       .   S
O102       C103 1.209       .   D
O104       H127 0.989       .   S
O104       H123 0.990       .   S
O105       H126 0.989       .   S
Zr31        O34 2.116       .   S
Zr31        O36 2.233       .   S
Zr31        O35 2.126       .   S
C393       C394 1.540       .   A
C394       C395 1.540       .   A
C395       C396 1.540       .   A
C299       C394 2.051   1_556   S
C396       C397 1.540       .   A
O152       H178 0.988       .   S
O154       H179 0.986       .   S
C323       C328 1.540       .   A
C323       H329 1.140       .   S
C323       C324 1.540       .   A
C324       C325 1.540       .   A
C325       C326 1.540       .   A
C326       C327 1.540       .   A
C327       C328 1.540       .   A
C384       C385 1.540       .   A
C383       C384 1.540       .   A
C423       C428 1.540       .   A
C427       C428 1.540       .   A
C423       C424 1.540       .   A
C426       C427 1.540       .   A
C425       C426 1.540       .   A
C424       C425 1.540       .   A
C89        C424 1.965       .   S
O69         C89 1.209       .   D
O203      Zr213 2.233       .   S
O207      Zr214 2.107       .   S
O207      Zr212 2.107       .   S
O206      Zr214 2.233       .   S
O204      Zr212 2.233       .   S
O209       H246 0.988       .   S
O209      Zr212 2.107       .   S
O208      Zr214 2.107       .   S
O208       H243 0.985       .   S
O208      Zr213 2.107       .   S
O210      Zr213 2.107       .   S
C448       H452 1.140       .   S
C446       H451 1.140       .   S
C445       H450 1.140       .   S
Zr214      O217 2.107       .   S
Zr211      O217 2.107       .   S
Zr213      O217 2.107       .   S
Zr145      O154 2.107       .   S
Zr147      O154 2.107       .   S
Zr145      O153 2.107       .   S
Zr146      O153 2.107       .   S
Zr145      O152 2.107       .   S
Zr146      O152 2.107       .   S
Zr148      O152 2.107       .   S
Zr145      O151 2.107       .   S
Zr147      O151 2.107       .   S
Zr148      O151 2.107       .   S
Zr148      O150 2.122       .   S
O150       H195 0.989       .   S
Zr146      O159 2.233       .   S
Zr146      O158 2.116       .   S
O158       H194 0.989       .   S
C548       H552 1.140       .   S
O92        H128 0.989       .   S
O96        H125 0.990       .   S
O68        H124 0.991       .   S
C377       C378 1.540       .   A
C373       C378 1.540       .   A
C376       C377 1.540       .   A
C375       C376 1.540       .   A
C374       C375 1.540       .   A
C373       C374 1.540       .   A
C475       H480 1.140       .   S
C297       C387 1.444       .   S
C516       C517 1.540       .   A
C515       C516 1.540       .   A
O98        C103 1.209       .   S
C337       C281 2.128       .   S
C385       H390 1.140       .   S
C386       H391 1.140       .   S
C443       C448 1.540       .   A
C444       C445 1.540       .   A
C445       C446 1.540       .   A
C443       C444 1.540       .   A
C333       C338 1.540       .   A
C386       C387 1.540       .   A
C385       C386 1.540       .   A
C336       C337 1.540       .   A
C337       C338 1.540       .   A
C335       C336 1.540       .   A
C416       C417 1.540       .   A
C415       C416 1.540       .   A
C417       C418 1.540       .   A
C414       C415 1.540       .   A
C413       C414 1.540       .   A
C413       C418 1.540       .   A
