data_soc_v1-4c_Cu_1_Ch_v2-6c_Zn_1_Ch_1B_4H_Ch
_audit_creation_date              2019-08-20
_audit_creation_method            'tobacco_3.0'
_symmetry_space_group_name_H-M    'P1'
_symmetry_Int_Tables_number       1
_symmetry_cell_setting            triclinic
loop_
_symmetry_equiv_pos_as_xyz
  x,y,z
_cell_length_a                    33.19465967497337
_cell_length_b                    33.1946315512142
_cell_length_c                    33.194599369583315
_cell_angle_alpha                 90.00012984930481
_cell_angle_beta                  89.99997606136995
_cell_angle_gamma                 90.00028383502553
loop_
_atom_site_label
_atom_site_type_symbol
_atom_site_fract_x
_atom_site_fract_y
_atom_site_fract_z
O1         O    0.2834966373   -0.0413302147   -0.0413303926
O2         O    0.2834951184    0.0413300322    0.0413314213
O3         O    0.2834937885   -0.0413279716    0.0413352246
O4         O    0.2834979743    0.0413338141   -0.0413341943
O5         O    0.2165062186    0.0413339966   -0.0413352230
O6         O    0.2165021423   -0.0413277876    0.0413281718
O7         O    0.2165033627    0.0413302147    0.0413303926
O8         O    0.2165048816   -0.0413300322   -0.0413314213
Cu9       Cu    0.2896092747    0.0000017813    0.0000032222
Cu10      Cu    0.2103907253   -0.0000017813   -0.0000032222
C11        C    0.2500001005   -0.0535186390   -0.0535186283
C12        C    0.2499998995    0.0535186390    0.0535186283
C13        C    0.2500000010   -0.0535168184    0.0535164777
C14        C    0.2499999990    0.0535168184   -0.0535164777
O15        O    0.7834966262    0.5413308979    0.5413309384
O16        O    0.7834951261    0.4586707041    0.4586690715
O17        O    0.7834937702    0.5413287078    0.4586653212
O18        O    0.7834979893    0.4586668691    0.5413346871
O19        O    0.7165062336    0.4586660018    0.5413357776
O20        O    0.7165021240    0.5413278391    0.4586724358
O21        O    0.7165033704    0.4586698368    0.4586701620
O22        O    0.7165048706    0.5413300307    0.5413320290
Cu23      Cu    0.7896092730    0.4999989910    0.4999972914
Cu24      Cu    0.7103907237    0.5000017438    0.5000038090
C25        C    0.7500000867    0.5535189720    0.5535192129
C26        C    0.7499999099    0.4464817627    0.4464818875
C27        C    0.7499999778    0.5535172201    0.4464841069
C28        C    0.7500000188    0.4464835146    0.5535169936
O29        O    0.4937400546    0.9586691284    0.0413310026
O30        O    0.4937414498    1.0413291349   -0.0413306770
O31        O    0.4937429107    0.9586711311   -0.0413346146
O32        O    0.4937385867    1.0413331572    0.0413349386
O33        O    0.5607303424    1.0413341095    0.0413359732
O34        O    0.5607345568    0.9586720849   -0.0413275560
O35        O    0.5607332055    1.0413300872   -0.0413296424
O36        O    0.5607318103    0.9586700807    0.0413320372
Cu37      Cu    0.4876273554    1.0000009339   -0.0000025456
Cu38      Cu    0.5668459047    0.9999982816    0.0000039058
C39        C    0.5272366096    0.9464811244    0.0535192215
C40        C    0.5272366506    1.0535180911   -0.0535178613
C41        C    0.5272367185    0.9464826337   -0.0535158846
C42        C    0.5272365416    1.0535165818    0.0535172447
O43        O    0.0607333248    0.5413299107    0.5413303880
O44        O    0.0607318060    0.4586694089    0.4586688290
O45        O    0.0607304760    0.5413274126    0.4586647708
O46        O    0.0607346619    0.4586658819    0.5413344446
O47        O   -0.0062570938    0.4586650356    0.5413355293
O48        O   -0.0062611701    0.5413265649    0.4586718796
O49        O   -0.0062599497    0.4586685626    0.4586699137
O50        O   -0.0062584309    0.5413290644    0.5413314727
Cu51      Cu    0.0668459622    0.4999978478    0.4999968955
Cu52      Cu   -0.0123725871    0.5000006255    0.5000034062
C53        C    0.0272367881    0.5535180407    0.5535186142
C54        C    0.0272365870    0.4464804326    0.4464816875
C55        C    0.0272366886    0.5535158900    0.4464835081
C56        C    0.0272366865    0.4464825833    0.5535167936
O57        O    0.9299490291    0.3948784861   -0.0413298228
O58        O    0.8472885849    0.3948772827    0.0413315709
O59        O    0.9299465186    0.3948757326    0.0413357944
O60        O    0.8472850703    0.3948800432   -0.0413340447
O61        O    0.8472840457    0.3278882308   -0.0413351759
O62        O    0.9299454925    0.3278840297    0.0413286390
O63        O    0.8472875602    0.3278854703    0.0413304397
O64        O    0.9299480044    0.3278866736   -0.0413309541
Cu65      Cu    0.8886170113    0.4009912864    0.0000035913
Cu66      Cu    0.8886195780    0.3217726699   -0.0000029744
C67        C    0.9421370614    0.3613818744   -0.0535180479
C68        C    0.8350995279    0.3613820819    0.0535186648
C69        C    0.9421348947    0.3613818984    0.0535170581
C70        C    0.8351016946    0.3613820579   -0.0535164412
O71        O    0.3472880487    0.8948781558    0.5413307662
O72        O    0.4299485206    0.8948769723    0.4586694001
O73        O    0.3472905869    0.8948754126    0.4586651489
O74        O    0.4299520075    0.8948797226    0.5413350158
O75        O    0.4299523762    0.8278879102    0.5413358351
O76        O    0.3472909571    0.8278837097    0.4586719924
O77        O    0.4299488893    0.8278851598    0.4586702195
O78        O    0.3472884174    0.8278863434    0.5413315855
Cu79      Cu    0.3886201402    0.9009909661    0.4999973944
Cu80      Cu    0.3886167978    0.8217723496    0.5000035912
C81        C    0.3350996843    0.8613815413    0.5535188312
C82        C    0.4421372537    0.8613817744    0.4464821544
C83        C    0.3351018870    0.8613815785    0.4464837252
C84        C    0.4421350511    0.8613817372    0.5535172605
O85        O    0.8472869458    0.6051213100   -0.0413300509
O86        O    0.9299473832    0.6051225509    0.0413312806
O87        O    0.8472894495    0.6051241106    0.0413355663
O88        O    0.9299509046    0.6051197432   -0.0413343351
O89        O    0.9299519370    0.6721115556   -0.0413352009
O90        O    0.8472904834    0.6721158135    0.0413286763
O91        O    0.9299484156    0.6721143634    0.0413304147
O92        O    0.8472879783    0.6721131224   -0.0413309168
Cu93      Cu    0.8886189595    0.5990085284    0.0000033078
Cu94      Cu    0.8886164020    0.6782271449   -0.0000029440
C95        C    0.8350989184    0.6386179161   -0.0535181341
C96        C    0.9421364431    0.6386177573    0.0535184979
C97        C    0.8351010763    0.6386179532    0.0535169719
C98        C    0.9421342851    0.6386177201   -0.0535166081
O99        O    0.4299479194    0.1051216231    0.5413301182
O100       O    0.3472875098    0.1051228635    0.4586687590
O101       O    0.4299454435    0.1051244136    0.4586645010
O102       O    0.3472839607    0.1051200659    0.5413343746
O103       O    0.3472835998    0.1721118784    0.5413355358
O104       O    0.4299450812    0.1721161165    0.4586716863
O105       O    0.3472871489    0.1721146759    0.4586699202
O106       O    0.4299475585    0.1721134355    0.5413312795
Cu107     Cu    0.3886158584    0.0990088413    0.4999967186
Cu108     Cu    0.3886192100    0.1782274577    0.5000033198
C109       C    0.4421362785    0.1386182293    0.5535183532
C110       C    0.3350987898    0.1386180697    0.4464816852
C111       C    0.4421341566    0.1386182532    0.4464832472
C112       C    0.3351009118    0.1386180458    0.5535167913
O113       O    0.8472871942    0.9586696033    0.3948789891
O114       O    0.9299475739    1.0413313563    0.3948774715
O115       O    0.8472896402    1.0413351404    0.3948761936
O116       O    0.9299511529    0.9586658208    0.3948802741
O117       O    0.9299516531    0.9586646555    0.3278883967
O118       O    0.8472901418    1.0413279510    0.3278844258
O119       O    0.9299480741    1.0413301910    0.3278855941
O120       O    0.8472876943    0.9586684380    0.3278871117
Cu121     Cu    0.8886192276    1.0000032001    0.4009916382
Cu122     Cu    0.8886160407    0.9999965942    0.3217729450
C123       C    0.8350989091    0.9464813082    0.3613823913
C124       C    0.9421363592    1.0535184861    0.3613821919
C125       C    0.8351009924    1.0535163105    0.3613823608
C126       C    0.9421342759    0.9464834838    0.3613822224
O127       O    0.4299484045    0.5413305220    0.8948786961
O128       O    0.3472881058    0.4586686880    0.8948772112
O129       O    0.4299460395    0.4586649850    0.8948758888
O130       O    0.3472844457    0.5413342234    0.8948800256
O131       O    0.3472839655    0.5413350947    0.8278881482
O132       O    0.4299455578    0.4586718803    0.8278841210
O133       O    0.3472876256    0.4586695592    0.8278853338
O134       O    0.4299479243    0.5413313933    0.8278868187
Cu135     Cu    0.3886164098    0.4999969115    0.9009913616
Cu136     Cu    0.3886196203    0.5000031698    0.8217726683
C137       C    0.4421366876    0.5535186821    0.8613820935
C138       C    0.3350993425    0.4464813992    0.8613819363
C139       C    0.4421347092    0.4464836798    0.8613820477
C140       C    0.3351013209    0.5535164015    0.8613819821
O141       O    0.8472875994    0.9586695133    0.6721142168
O142       O    0.9299481315    1.0413311140    0.6721127319
O143       O    0.8472901978    1.0413350503    0.6721114095
O144       O    0.9299515582    0.9586655785    0.6721155463
O145       O    0.9299520944    0.9586644036    0.6051236689
O146       O    0.8472907354    1.0413278514    0.6051196417
O147       O    0.9299486677    1.0413299391    0.6051208545
O148       O    0.8472881356    0.9586683384    0.6051223394
Cu149     Cu    0.8886197057    1.0000030348    0.6782268823
Cu150     Cu    0.8886165614    0.9999964175    0.5990081890
C151       C    0.8350993099    0.9464812359    0.6386176142
C152       C    0.9421369572    1.0535182165    0.6386174571
C153       C    0.8351015905    1.0535162381    0.6386175684
C154       C    0.9421346767    0.9464832142    0.6386175029
O155       O    0.4299482246    0.5413299851    0.1721144390
O156       O    0.3472877736    0.4586683033    0.1721129214
O157       O    0.4299457073    0.4586644480    0.1721116435
O158       O    0.3472842659    0.5413338388    0.1721157240
O159       O    0.3472838217    0.5413347004    0.1051238466
O160       O    0.4299452617    0.4586713337    0.1051198756
O161       O    0.3472873294    0.4586691650    0.1051210440
O162       O    0.4299477804    0.5413308467    0.1051225616
Cu163     Cu    0.3886161504    0.4999964516    0.1782270881
Cu164     Cu    0.3886194036    0.5000026985    0.0990083949
C165       C    0.4421365482    0.5535181178    0.1386178412
C166       C    0.3350990059    0.4464810322    0.1386176418
C167       C    0.4421343726    0.4464831155    0.1386178107
C168       C    0.3351011815    0.5535160345    0.1386176722
Zn169     Zn    0.1048403059    0.2162228829    0.2162243161
Zn170     Zn    0.1273582521    0.3062937410    0.2387421337
Zn171     Zn    0.1273580629    0.2387407188    0.3062952079
Zn172     Zn    0.1949110883    0.2387407850    0.2387420128
O173       O    0.1386169273    0.2499995319    0.2500009176
O174       O    0.0701601143    0.2469928130    0.1815440330
O175       O    0.1085259964    0.3350052212    0.2853602046
O176       O    0.0867088356    0.1980915008    0.3131898764
O177       O    0.0867091579    0.3131883062    0.1980929821
O178       O    0.0701599311    0.1815425383    0.2469943582
O179       O    0.1085258574    0.2853586905    0.3350067737
O180       O    0.2236224851    0.2199085286    0.2853599987
O181       O    0.1739762742    0.3350052854    0.2199097624
O182       O    0.1739759520    0.2199084800    0.3350066566
O183       O    0.2236226683    0.2853588033    0.2199096735
O184       O    0.2018056465    0.1980916136    0.1980927762
O185       O    0.1356102089    0.1815426025    0.1815439160
C186       C    0.0666616737    0.2859770177    0.1780455219
C187       C    0.1026394741    0.3219549442    0.3219565064
C188       C    0.0666613715    0.1780440139    0.2859786091
C189       C    0.2105721809    0.2140220462    0.3219563133
C190       C    0.2105724831    0.3219550500    0.2140232262
C191       C    0.1745943805    0.1780441197    0.1780453289
Zn192     Zn    0.5823240973    0.7612590658    0.2387430135
Zn193     Zn    0.6498771167    0.7612593082    0.3062961581
Zn194     Zn    0.6498769651    0.6937061414    0.2387429223
Zn195     Zn    0.6723948711    0.7837769617    0.2162253032
O196       O    0.6386182625    0.7500003693    0.2500018493
O197       O    0.5536126876    0.7800914086    0.2853610659
O198       O    0.6687093415    0.7146414068    0.3350075983
O199       O    0.6032589579    0.6649945349    0.2199105172
O200       O    0.6032592164    0.7800915868    0.3350076867
O201       O    0.5536125406    0.7146409937    0.2199105842
O202       O    0.6687092300    0.6649947698    0.2853609105
O203       O    0.7070750801    0.7530069736    0.1815449207
O204       O    0.6905263245    0.8019085600    0.3131908933
O205       O    0.6905260661    0.6868115081    0.1980937239
O206       O    0.7070752271    0.8184573885    0.2469954024
O207       O    0.6416249550    0.8184571535    0.1815450091
O208       O    0.5754295236    0.8019081469    0.1980938793
C209       C    0.5666629858    0.7859779755    0.3219573848
C210       C    0.6745957430    0.6780451279    0.3219572391
C211       C    0.5666627435    0.6780447405    0.2140240396
C212       C    0.7105735393    0.7140227630    0.1780463138
C213       C    0.7105737816    0.8219559980    0.2859796590
C214       C    0.6026407820    0.8219556106    0.1780464595
Zn215     Zn    0.6273596716    0.2612591265    0.8062938507
Zn216     Zn    0.6048419983    0.2837767177    0.7162230346
Zn217     Zn    0.6949126703    0.2612592658    0.7387406288
Zn218     Zn    0.6273594760    0.1937059986    0.7387405760
O219       O    0.6386184541    0.2500002772    0.7499995225
O220       O    0.5867106625    0.3019081680    0.8131886559
O221       O    0.6356120713    0.3184570857    0.6815427252
O222       O    0.7236241853    0.2800917275    0.7853586592
O223       O    0.5701618194    0.3184569507    0.7469931934
O224       O    0.6739776719    0.2800916251    0.8350053368
O225       O    0.7018074278    0.3019084054    0.6980915101
O226       O    0.6739773385    0.1649946396    0.7199081010
O227       O    0.5701616299    0.2530065736    0.6815426740
O228       O    0.7236239958    0.2146413504    0.7199081398
O229       O    0.5867103291    0.1868111825    0.6980914201
O230       O    0.6085270867    0.1649945046    0.7853585692
O231       O    0.6085272304    0.2146411130    0.8350052856
C232       C    0.5666632938    0.3219555200    0.7859774560
C233       C    0.6745962601    0.3219557426    0.6780441330
C234       C    0.7105739269    0.2859782071    0.8219549964
C235       C    0.7105736143    0.1780450343    0.7140215890
C236       C    0.5666629812    0.2140223472    0.6780440486
C237       C    0.6026406480    0.1780448118    0.8219549120
Zn238     Zn    0.1723943546    0.7162227657    0.7162226532
Zn239     Zn    0.0823236612    0.7387402526    0.7387403039
Zn240     Zn    0.1498766099    0.7387405689    0.8062935193
Zn241     Zn    0.1498768411    0.8062935342    0.7387403881
O242       O    0.1386178667    0.7499992803    0.7499992161
O243       O    0.1416243146    0.6815423076    0.6815422731
O244       O    0.0536121157    0.7199078970    0.7853582971
O245       O    0.1905256226    0.6980915527    0.8131882342
O246       O    0.0754289424    0.6980910137    0.6980910996
O247       O    0.2070745181    0.6815426142    0.7469927350
O248       O    0.1032585924    0.7199081295    0.8350049699
O249       O    0.1687091898    0.8350051445    0.7853584405
O250       O    0.0536123397    0.7853581166    0.7199079168
O251       O    0.1687090199    0.7853586556    0.8350050514
O252       O    0.1032589863    0.8350048379    0.7199079786
O253       O    0.1905260165    0.8131882611    0.6980912429
O254       O    0.2070747421    0.7469928337    0.6815423546
C255       C    0.1026401292    0.6780436340    0.6780436772
C256       C    0.0666623484    0.7140215083    0.8219546206
C257       C    0.2105730156    0.6780441395    0.7859769898
C258       C    0.1745956042    0.8219549267    0.8219547550
C259       C    0.0666627177    0.8219544212    0.7140214425
C260       C    0.2105733850    0.7859770523    0.6780438117
Zn261     Zn    0.1498771261    0.2612583270    0.8062952660
Zn262     Zn    0.1723948817    0.2837759769    0.7162244105
Zn263     Zn    0.1498769724    0.1937051581    0.7387420322
Zn264     Zn    0.0823241069    0.2612580849    0.7387421210
O265       O    0.1386182718    0.2499993867    0.7500009574
O266       O    0.1905263352    0.3019075775    0.8131900001
O267       O    0.2070750898    0.2530059866    0.6815440291
O268       O    0.1687092361    0.1649937872    0.7853600214
O269       O    0.2070752387    0.3184564034    0.7469945088
O270       O    0.1687093490    0.2146404258    0.8350067076
O271       O    0.1905260733    0.1868105221    0.6980928342
O272       O    0.0536125488    0.2146400133    0.7199096930
O273       O    0.1416249670    0.3184561688    0.6815441151
O274       O    0.1032589643    0.1649935527    0.7199096277
O275       O    0.0754295350    0.3019071650    0.6980929855
O276       O    0.0536126977    0.2800904301    0.7853601727
O277       O    0.1032592262    0.2800906080    0.8350067937
C278       C    0.2105737932    0.3219550140    0.7859787653
C279       C    0.2105735476    0.2140217758    0.6780454234
C280       C    0.1745957493    0.1780441463    0.8219563496
C281       C    0.0666627503    0.1780437594    0.7140231495
C282       C    0.1026407942    0.3219546272    0.6780455652
C283       C    0.0666629959    0.2859769977    0.8219564915
Zn284     Zn    0.6048416581    0.7162239811    0.7162250873
Zn285     Zn    0.6273594090    0.7387418156    0.8062959811
Zn286     Zn    0.6949124383    0.7387418858    0.7387427899
Zn287     Zn    0.6273595997    0.8062948394    0.7387429084
O288       O    0.6386182763    0.7500006305    0.7500016916
O289       O    0.5701612826    0.6815436345    0.7469951266
O290       O    0.6739772971    0.7199095777    0.8350074320
O291       O    0.7018070004    0.6980927156    0.6980935527
O292       O    0.5867101827    0.6980925960    0.8131906461
O293       O    0.6356115643    0.6815437025    0.6815446882
O294       O    0.7236238331    0.7199096293    0.7853607770
O295       O    0.6739776220    0.8350063859    0.7199105405
O296       O    0.6085272002    0.7853597859    0.8350075468
O297       O    0.7236240178    0.7853599056    0.7199104534
O298       O    0.6085273403    0.8350063178    0.7853609789
O299       O    0.5867105076    0.8131894041    0.6980937546
O300       O    0.5701614674    0.7469939107    0.6815448030
C301       C    0.5666627209    0.6780451090    0.7859793772
C302       C    0.7105735270    0.7140231456    0.8219570907
C303       C    0.6745957362    0.6780452212    0.6780461033
C304       C    0.7105738317    0.8219561520    0.7140240061
C305       C    0.6026408164    0.8219560397    0.8219572800
C306       C    0.5666630256    0.7859781154    0.6780462926
Zn307     Zn    0.0823240661    0.7387408984    0.2612577184
Zn308     Zn    0.1723947399    0.7162234480    0.2837753067
Zn309     Zn    0.1498770607    0.7387410414    0.1937044926
Zn310     Zn    0.1498772587    0.8062941672    0.2612577694
O311       O    0.1386182813    0.7499998888    0.2499988218
O312       O    0.0754293119    0.6980917575    0.3019068363
O313       O    0.2070749178    0.6815432168    0.2530051448
O314       O    0.1032590593    0.7199085426    0.1649930087
O315       O    0.1416246697    0.6815430783    0.3184556168
O316       O    0.0536125487    0.7199084375    0.2146396891
O317       O    0.1905260705    0.6980920010    0.1868096838
O318       O    0.1687096447    0.8350056631    0.2146397759
O319       O    0.2070751096    0.7469935919    0.3184556662
O320       O    0.1687094992    0.7853590562    0.1649930580
O321       O    0.1905264078    0.8131889831    0.3019069231
O322       O    0.1032593966    0.8350055246    0.2800902479
O323       O    0.0536127406    0.7853588126    0.2800902105
C324       C    0.1026404812    0.6780444203    0.3219542112
C325       C    0.2105734412    0.6780446487    0.2140208819
C326       C    0.0666628052    0.7140219593    0.1780433510
C327       C    0.1745960815    0.8219553572    0.1780434324
C328       C    0.2105737575    0.7859778182    0.3219542926
C329       C    0.0666631215    0.8219551288    0.2859767616
Zn330     Zn    0.6273584745    0.1937061025    0.2612582981
Zn331     Zn    0.6048409633    0.2837768721    0.2837760311
Zn332     Zn    0.6949116560    0.2612593825    0.2612583803
Zn333     Zn    0.6273587069    0.2612590662    0.1937051653
O334       O    0.6386174502    0.2500003558    0.2499994687
O335       O    0.5867092992    0.1868113775    0.3019074437
O336       O    0.6356110042    0.3184573302    0.3184564102
O337       O    0.7236229765    0.2146415183    0.2800907685
O338       O    0.5701605752    0.2530068057    0.3184563305
O339       O    0.6739763287    0.1649947981    0.2800907081
O340       O    0.7018063760    0.3019086223    0.3019075837
O341       O    0.6739767247    0.2800915038    0.1649937141
O342       O    0.5701608004    0.3184570237    0.2530059486
O343       O    0.7236232017    0.2800917363    0.2146403866
O344       O    0.5867096951    0.3019080832    0.1868104497
O345       O    0.6085262957    0.2146409793    0.1649936344
O346       O    0.6085261249    0.1649944916    0.2146402465
C347       C    0.5666619314    0.2140225872    0.3219548744
C348       C    0.6745951898    0.3219560030    0.3219550057
C349       C    0.7105725976    0.1780452141    0.2859772437
C350       C    0.7105729690    0.2859781244    0.1780440630
C351       C    0.5666623027    0.3219554975    0.2140216937
C352       C    0.6026397106    0.1780447086    0.1780439317
C823       C    0.3145640293    0.6303575242    0.1622230258
C824       C    0.3029943914    0.5856230499    0.1580587624
C825       C    0.2612676734    0.5710458673    0.1721550136
C826       C    0.2311105933    0.6012031590    0.1904155283
C827       C    0.2426802312    0.6459376333    0.1945797918
C828       C    0.2844069492    0.6605148159    0.1804835405
H829       H    0.3454526387    0.6411484256    0.1517881385
H830       H    0.2527025480    0.5379331070    0.1690730867
H831       H    0.2002219839    0.5904122576    0.2008504156
H832       H    0.2929720747    0.6936275762    0.1835654674
C813       C    0.4592016594    0.3738480856    0.1749006754
C814       C    0.4742412123    0.4143763563    0.1580590748
C815       C    0.5194378905    0.4247475773    0.1594781516
C816       C    0.5495950159    0.3945905275    0.1777388290
C817       C    0.5345554631    0.3540622567    0.1945804296
C818       C    0.4893587849    0.3436910358    0.1931613528
H819       H    0.4257443782    0.3661706883    0.1738501900
H820       H    0.5305715444    0.4547467875    0.1470121036
H821       H    0.5830522972    0.4022679248    0.1787893144
H822       H    0.4782251310    0.3136918256    0.2056274008
C803       C    0.3102054712    0.3687647065    0.1535826303
C804       C    0.3029928678    0.4143750335    0.1580591395
C805       C    0.2656231410    0.4298283681    0.1807969432
C806       C    0.2354660178    0.3996713757    0.1990582376
C807       C    0.2426786212    0.3540610488    0.1945817284
C808       C    0.2800483480    0.3386077141    0.1718439248
H809       H    0.3378687754    0.3573252250    0.1367507496
H810       H    0.2602832149    0.4635894591    0.1841111589
H811       H    0.2078027136    0.4111108572    0.2158901183
H812       H    0.2853882741    0.3048466232    0.1685297090
C793       C    0.4607588578    0.6142500123    0.1919877614
C794       C    0.4742426434    0.5856243233    0.1580595224
C795       C    0.5178834315    0.5871557402    0.1423927014
C796       C    0.5480404339    0.6173128461    0.1606541194
C797       C    0.5345566482    0.6459385351    0.1945823584
C798       C    0.4909158602    0.6444071182    0.2102491794
H799       H    0.4284533394    0.6131163660    0.2035852783
H800       H    0.5278654628    0.5659671554    0.1172786436
H801       H    0.5803459523    0.6184464924    0.1490566025
H802       H    0.4809338289    0.6655957030    0.2353632372
C783       C    0.8075057550    0.9009242724    0.7022301145
C784       C    0.8029935899    0.9143756175    0.6580592301
C785       C    0.7683244056    0.8976700390    0.6321499257
C786       C    0.7381673866    0.8675131154    0.6504115058
C787       C    0.7426795517    0.8540617703    0.6945823903
C788       C    0.7773487359    0.8707673488    0.7204916946
H789       H    0.8331699563    0.9132907396    0.7214097295
H790       H    0.7649834198    0.9076261481    0.5994539740
H791       H    0.7125031852    0.8551466482    0.6312318909
H792       H    0.7806897217    0.8608112397    0.7531876463
C773       C    0.8136465753    1.1083282310    0.6970896896
C774       C    0.8029946466    1.0856233935    0.6580589240
C775       C    0.7621856737    1.0930757987    0.6372888131
C776       C    0.7320286295    1.1232330415    0.6555494679
C777       C    0.7426805582    1.1459378790    0.6945802335
C778       C    0.7834895311    1.1384854737    0.7153503443
H779       H    0.8438558149    1.1028115154    0.7124649664
H780       H    0.7542998624    1.0762699945    0.6083977219
H781       H    0.7018193898    1.1287497571    0.6401741911
H782       H    0.7913753423    1.1552912779    0.7442414356
C763       C    0.9949755287    1.0761146396    0.6984580117
C764       C    0.9742427658    1.0856239606    0.6580588970
C765       C    0.9836670909    1.1252903089    0.6359211886
C766       C    1.0138241789    1.1554473363    0.6541825949
C767       C    1.0345569418    1.1459380154    0.6945817096
C768       C    1.0251326167    1.1062716671    0.7167194180
H769       H    0.9879990803    1.0467512390    0.7148456659
H770       H    0.9683210717    1.1323303297    0.6060172069
H771       H    1.0208006273    1.1848107370    0.6377949407
H772       H    1.0404786359    1.0992316462    0.7466233996
C753       C    0.9871263198    0.8769349105    0.6338821162
C754       C    0.9742416800    0.9143760170    0.6580588634
C755       C    0.9915140574    0.9216599242    0.7004962198
C756       C    1.0216710746    0.8915027249    0.7187568291
C757       C    1.0345557144    0.8540616184    0.6945800819
C758       C    1.0172833370    0.8467777112    0.6521427255
H759       H    0.9743402742    0.8715429272    0.6024674498
H760       H    0.9819774395    0.9493739287    0.7183931052
H761       H    1.0344571202    0.8968947082    0.7501714956
H762       H    1.0268199549    0.8190637067    0.6342458402
C743       C    0.4931954854    0.5772265625    0.8004369134
C744       C    0.4742425172    0.5856246132    0.8419414456
C745       C    0.4854467360    0.6241799462    0.8651852676
C746       C    0.5156039231    0.6543372286    0.8469245573
C747       C    0.5345568913    0.6459391779    0.8054200251
C748       C    0.5233526725    0.6073838448    0.7821762031
H749       H    0.4849014533    0.5486856017    0.7832304478
H750       H    0.4714181709    0.6303973737    0.8959075105
H751       H    0.5238979552    0.6828781894    0.8641310230
H752       H    0.5373812376    0.6011664174    0.7514539602
C733       C    0.5479828904    0.3974536151    0.8148693919
C734       C    0.5345561606    0.3540625438    0.8054189785
C735       C    0.4909722717    0.3408285286    0.8142293384
C736       C    0.4608151127    0.3709855847    0.8324901118
C737       C    0.4742418425    0.4143766560    0.8419405252
C738       C    0.5178257314    0.4276106712    0.8331301653
H739       H    0.5802462886    0.4072502237    0.8083474372
H740       H    0.4810324747    0.3087101929    0.8072344548
H741       H    0.4285517145    0.3611889760    0.8390120665
H742       H    0.5277655283    0.4597290068    0.8401250489
C723       C    0.3109207503    0.3961442921    0.8000227799
C724       C    0.3029936918    0.4143755330    0.8419412040
C725       C    0.2649095094    0.4024494475    0.8655987749
C726       C    0.2347523854    0.3722921211    0.8473379217
C727       C    0.2426794439    0.3540608802    0.8054194976
C728       C    0.2807636263    0.3659869657    0.7817619268
H729       H    0.3391129373    0.4049726931    0.7825100327
H730       H    0.2590407236    0.4159437698    0.8966273921
H731       H    0.2065601984    0.3634637201    0.8648506690
H732       H    0.2866324121    0.3524926435    0.7507333095
C713       C    0.2612671034    0.5710464449    0.8278432707
C714       C    0.3029942651    0.5856233110    0.8419403597
C715       C    0.3145643300    0.6303571366    0.8377765749
C716       C    0.2844072331    0.6605140961    0.8195157012
C717       C    0.2426800714    0.6459372300    0.8054186122
C718       C    0.2311100065    0.6012034044    0.8095823970
H719       H    0.2527022502    0.5379317948    0.8309255530
H720       H    0.3454509929    0.6411482968    0.8482110583
H721       H    0.2929720863    0.6936287462    0.8164334190
H722       H    0.2002233436    0.5904122442    0.7991479136
C703       C    0.7859394416    1.1200241056    0.3679814236
C704       C    0.8029937774    1.0856236567    0.3419406238
C705       C    0.7898911309    1.0813803135    0.2976390025
C706       C    0.7597341485    1.1115374191    0.2793781810
C707       C    0.7426798127    1.1459378679    0.3054189808
C708       C    0.7557824592    1.1501812112    0.3497206021
H709       H    0.7956388033    1.1231652817    0.4007761303
H710       H    0.8025142750    1.0559170892    0.2783622930
H711       H    0.7500347868    1.1083962429    0.2465834743
H712       H    0.7431593151    1.1756444354    0.3689973116
C693       C    0.9678372238    0.8687907177    0.3477114547
C694       C    0.9742415770    0.9143763092    0.3419404149
C695       C    1.0108030519    0.9298048978    0.3179084523
C696       C    1.0409601736    0.8996478949    0.2996475293
C697       C    1.0345558204    0.8540623034    0.3054185690
C698       C    0.9979943455    0.8386337148    0.3294505317
H699       H    0.9407722359    0.8573695546    0.3655013491
H700       H    1.0155446884    0.9635476789    0.3136359886
H701       H    1.0680251615    0.9110690580    0.2818576349
H702       H    0.9932527090    0.8048909337    0.3337229954
C683       C    0.9607583562    1.1142493871    0.3080128757
C684       C    0.9742417828    1.0856240426    0.3419414071
C685       C    1.0178822919    1.0871559054    0.3576089318
C686       C    1.0480393745    1.1173131128    0.3393479252
C687       C    1.0345559479    1.1459384573    0.3054193939
C688       C    0.9909154387    1.1444065945    0.2897518691
H689       H    0.9284530442    1.1131154107    0.2964148379
H690       H    1.0278640575    1.0659675756    0.3827232059
H691       H    1.0803446865    1.1184470892    0.3509459630
H692       H    0.9809336732    1.1655949243    0.2646375950
C673       C    0.7680521482    0.8420160164    0.3423454988
C674       C    0.7426791432    0.8540614067    0.3054201690
C675       C    0.7474633404    0.8962640434    0.2867556953
C676       C    0.7776205425    0.9264212898    0.3050165515
C677       C    0.8029935475    0.9143758995    0.3419418813
C678       C    0.7982093503    0.8721732628    0.3606063550
H679       H    0.7645105996    0.8107751035    0.3561620573
H680       H    0.7286824837    0.9051813342    0.2594231068
H681       H    0.7811620911    0.9576622027    0.2911999931
H682       H    0.8169902070    0.8632559720    0.3879389436
C663       C    0.4614876702    0.1653928159    0.3703769549
C664       C    0.4742409278    0.1580596164    0.4143763218
C665       C    0.5171513016    0.1689872207    0.4282184277
C666       C    0.5473084178    0.1872480245    0.3980611667
C667       C    0.5345551602    0.1945812240    0.3540617997
C668       C    0.4916447864    0.1836536197    0.3402196938
H669       H    0.4297228480    0.1573035504    0.3601302011
H670       H    0.5265925755    0.1635595584    0.4607870409
H671       H    0.5790732400    0.1953372901    0.4083079204
H672       H    0.4822035125    0.1890812821    0.3076510807
C653       C    0.2754886436    0.1930776573    0.4273984547
C654       C    0.3029926807    0.1580591219    0.4143758950
C655       C    0.3003395225    0.1413015226    0.3711964396
C656       C    0.2701823272    0.1595624587    0.3410395438
C657       C    0.2426782901    0.1945809940    0.3540621035
C658       C    0.2453314483    0.2113385933    0.3972415589
H659       H    0.2774526698    0.2054826334    0.4593624671
H660       H    0.3206978290    0.1153803968    0.3615558207
H661       H    0.2682183009    0.1471574825    0.3090755314
H662       H    0.2249731417    0.2372597191    0.4068821778
C643       C    0.5106774786    0.1822888118    0.5702039785
C644       C    0.4742423519    0.1580592816    0.5856241669
C645       C    0.4679645032    0.1520907581    0.6312013893
C646       C    0.4981217812    0.1703517648    0.6613584234
C647       C    0.5345569079    0.1945812949    0.6459382349
C648       C    0.5408347566    0.2005498184    0.6003610125
H649       H    0.5153247173    0.1867070694    0.5364649956
H650       H    0.4409951532    0.1341559571    0.6426168004
H651       H    0.4934745425    0.1659335071    0.6950974062
H652       H    0.5678041066    0.2184846194    0.5889456014
C633       C    0.3099789896    0.1532097949    0.6312314880
C634       C    0.3029942579    0.1580592463    0.5856237720
C635       C    0.2658524980    0.1811693622    0.5701733913
C636       C    0.2356954698    0.1994300267    0.6003307266
C637       C    0.2426802015    0.1945805752    0.6459384426
C638       C    0.2798219614    0.1714704593    0.6613888233
H639       H    0.3374735391    0.1361023065    0.6426687828
H640       H    0.2606812490    0.1847596403    0.5364142331
H641       H    0.2082009203    0.2165375150    0.5888934318
H642       H    0.2849932104    0.1678801813    0.6951479815
C623       C    0.9662244904    0.6549465892    0.1312134270
C624       C    0.9742423128    0.6580587611    0.0856239786
C625       C    1.0124174465    0.6794320302    0.0701914760
C626       C    1.0425747578    0.6976931274    0.1003484219
C627       C    1.0345569355    0.6945809554    0.1459378703
C628       C    0.9963818018    0.6732076864    0.1613703728
H629       H    0.9379649758    0.6391248186    0.1426374873
H630       H    1.0183534183    0.6817363252    0.0364458399
H631       H    1.0708342724    0.7135148980    0.0889243616
H632       H    0.9904458300    0.6709033914    0.1951160089
C613       C    0.7581034219    0.6465588931   -0.0833844407
C614       C    0.8029932312    0.6580592259   -0.0856236625
C615       C    0.8177260319    0.6878208636   -0.1180197435
C616       C    0.7875690235    0.7060821685   -0.1481766028
C617       C    0.7426792142    0.6945818357   -0.1459373810
C618       C    0.7279464134    0.6648201980   -0.1135413000
H619       H    0.7471973226    0.6245275508   -0.0594029262
H620       H    0.8509537755    0.6963343110   -0.1196782328
H621       H    0.7984751228    0.7281135108   -0.1721581173
H622       H    0.6947186699    0.6563067507   -0.1118828107
C603       C    0.7575933825    0.6497357463    0.0809505445
C604       C    0.8029942207    0.6580595274    0.0856242929
C605       C    0.8182381459    0.6846441391    0.1204553912
C606       C    0.7880812331    0.7029049699    0.1506127412
C607       C    0.7426803949    0.6945811889    0.1459389928
C608       C    0.7274364696    0.6679965771    0.1111078944
H609       H    0.7463089183    0.6300562285    0.0551664847
H610       H    0.8518441674    0.6908062136    0.1239159855
H611       H    0.7993656973    0.7225844877    0.1763968010
H612       H    0.6938304482    0.6618345026    0.1076473002
C593       C    0.9651623788    0.6568764025   -0.1311049446
C594       C    0.9742411671    0.6580589647   -0.0856236727
C595       C    1.0134771051    0.6775021764   -0.0702997219
C596       C    1.0436342547    0.6957628260   -0.1004570430
C597       C    1.0345554663    0.6945802638   -0.1459383149
C598       C    0.9953195284    0.6751370520   -0.1612622657
H599       H    0.9361175935    0.6424833756   -0.1424486484
H600       H    1.0201984337    0.6783781201   -0.0366341612
H601       H    1.0726790400    0.7101558528   -0.0891133392
H602       H    0.9885981998    0.6742611084   -0.1949278264
C583       C    0.3073857883    0.8506571534    0.3690211234
C584       C    0.3029949395    0.8419403118    0.4143764417
C585       C    0.2684469734    0.8149628567    0.4295743271
C586       C    0.2382898562    0.7967022432    0.3994168943
C587       C    0.2426807050    0.8054190849    0.3540615760
C588       C    0.2772286711    0.8323965400    0.3388636906
H589       H    0.3329602567    0.8706274773    0.3577707407
H590       H    0.2651957894    0.8085098278    0.4631466535
H591       H    0.2127153878    0.7767319193    0.4106672770
H592       H    0.2804798551    0.8388495689    0.3052913642
C573       C    0.4980111843    0.8696069812    0.6142944354
C574       C    0.4742420046    0.8419404784    0.5856244867
C575       C    0.4806298586    0.7960134235    0.5871118278
C576       C    0.5107868923    0.7777528714    0.6172691177
C577       C    0.5345560720    0.8054193742    0.6459390664
C578       C    0.5281682180    0.8513464291    0.6444517253
H579       H    0.4932825132    0.9036049310    0.6131934167
H580       H    0.4630361984    0.7755333230    0.5658904807
H581       H    0.5155155635    0.7437549216    0.6183701364
H582       H    0.5457618782    0.8718265297    0.6656730724
C563       C    0.4918790991    0.7996961630    0.4219069278
C564       C    0.4742429288    0.8419408940    0.4143767275
C565       C    0.4867639495    0.8659246059    0.3766895694
C566       C    0.5169211404    0.8476635869    0.3465326115
C567       C    0.5345573107    0.8054188559    0.3540628118
C568       C    0.5220362900    0.7814351440    0.3917499699
H569       H    0.4826102916    0.7819419866    0.4498052136
H570       H    0.4737101152    0.8971947647    0.3711145492
H571       H    0.5261899479    0.8654177633    0.3186343256
H572       H    0.5350901243    0.7501649852    0.3973249901
C553       C    0.2996798920    0.7958830747    0.5901080824
C554       C    0.3029937821    0.8419404339    0.5856243934
C555       C    0.2761504247    0.8697366561    0.6112976325
C556       C    0.2459931773    0.8514755189    0.6414545605
C557       C    0.2426792873    0.8054181597    0.6459382495
C558       C    0.2695226446    0.7776219376    0.6202650104
H559       H    0.3195509487    0.7753066505    0.5711032171
H560       H    0.2786025049    0.9038290294    0.6079796343
H561       H    0.2261221206    0.8720519431    0.6604594258
H562       H    0.2670705645    0.7435295643    0.6235830086
C543       C    0.8067060781    0.2973972933    0.0980512897
C544       C    0.8029935224    0.3419410895    0.0856243711
C545       C    0.7691236927    0.3682238994    0.1033544453
C546       C    0.7389664188    0.3499629130    0.1335114382
C547       C    0.7426789745    0.3054191168    0.1459383567
C548       C    0.7765488042    0.2791363069    0.1282082825
H549       H    0.8317785494    0.2779411874    0.0849264295
H550       H    0.7663746003    0.4011958908    0.0941566455
H551       H    0.7138939475    0.3694190190    0.1466362983
H552       H    0.7792978966    0.2461643155    0.1374060823
C533       C    0.9916996403    0.3165088986    0.1598226964
C534       C    1.0345551309    0.3054185390    0.1459385447
C535       C    1.0472537748    0.3125890985    0.1018971384
C536       C    1.0170969281    0.3308500175    0.0717398837
C537       C    0.9742414375    0.3419403771    0.0856240353
C538       C    0.9615427936    0.3347698176    0.1296654417
H539       H    0.9822993455    0.3112008221    0.1924247764
H540       H    1.0789756585    0.3043802807    0.0916187449
H541       H    1.0264972229    0.3361580940    0.0391378037
H542       H    0.9298209099    0.3429786354    0.1399438351
C523       C    0.7404326868    0.2939291605   -0.1010461122
C524       C    0.7426806606    0.3054194242   -0.1459380649
C525       C    0.7750857846    0.3351703962   -0.1606726752
C526       C    0.8052429347    0.3534311045   -0.1305153326
C527       C    0.8029949609    0.3419408409   -0.0856233799
C528       C    0.7705898369    0.3121898689   -0.0708887697
H529       H    0.7164444782    0.2719057137   -0.0901386734
H530       H    0.7767507524    0.3436763900   -0.1939020054
H531       H    0.8292311433    0.3754545513   -0.1414227714
H532       H    0.7689248691    0.3036838750   -0.0376594395
C513       C    0.9969038540    0.3276860970   -0.1613885746
C514       C    1.0345571104    0.3054182518   -0.1459377452
C515       C    1.0420532850    0.3014115908   -0.1003299489
C516       C    1.0118962033    0.3196727751   -0.0701729819
C517       C    0.9742429469    0.3419406203   -0.0856238112
C518       C    0.9667467723    0.3459472813   -0.1312316076
H519       H    0.9913547378    0.3306520669   -0.1951501900
H520       H    1.0699243288    0.2849288841   -0.0888918566
H521       H    1.0174453195    0.3167068053   -0.0364113664
H522       H    0.9388757285    0.3624299880   -0.1426696999
C503       C    0.0588598076    0.5714651876    0.3719082158
C504       C    0.0466780000    0.5856230010    0.4143761995
C505       C    0.0527567773    0.6299379685    0.4266868434
C506       C    0.0710173622    0.6600951227    0.3965295035
C507       C    0.0831991698    0.6459373094    0.3540615198
C508       C    0.0771203925    0.6016223418    0.3417508759
H509       H    0.0543599335    0.5386606013    0.3627951417
H510       H    0.0437400389    0.6404189341    0.4581218837
H511       H    0.0755172363    0.6928997091    0.4056425776
H512       H    0.0861371309    0.5911413763    0.3103158357
C493       C    0.0451790968    0.3688698510    0.4232875776
C494       C    0.0466771988    0.4143748758    0.4143762099
C495       C    0.0664361325    0.4297227132    0.3753077293
C496       C    0.0846969643    0.3995655258    0.3451506163
C497       C    0.0831988623    0.3540605010    0.3540619840
C498       C    0.0634399286    0.3387126636    0.3931304646
H499       H    0.0305523537    0.3575084648    0.4522084009
H500       H    0.0675456476    0.4634058565    0.3687103302
H501       H    0.0993237075    0.4109269119    0.3162297930
H502       H    0.0623304135    0.3050295203    0.3997278637
C483       C    0.0538967213    0.3703459955    0.5729099045
C484       C    0.0466780730    0.4143756305    0.5856239567
C485       C    0.0577200921    0.4282482401    0.6284952316
C486       C    0.0759807594    0.3980912149    0.6586524544
C487       C    0.0831994077    0.3540615800    0.6459384022
C488       C    0.0721573886    0.3401889703    0.6030671272
H489       H    0.0457227591    0.3600766611    0.5411740256
H490       H    0.0523772238    0.4608392584    0.6379074846
H491       H    0.0841547216    0.4083605493    0.6903883332
H492       H    0.0775002569    0.3075979520    0.5936548742
C473       C    0.0188738353    0.6119444467    0.6118257426
C474       C    0.0466774907    0.5856235813    0.5856240181
C475       C    0.0927421141    0.5894599720    0.5895794213
C476       C    0.1110030819    0.6196172280    0.6197365489
C477       C    0.0831994265    0.6459380934    0.6459382733
C478       C    0.0371348032    0.6421017027    0.6419828702
H479       H   -0.0152259508    0.6091045211    0.6088977169
H480       H    0.1133237388    0.5699774824    0.5701851231
H481       H    0.1451028680    0.6224571536    0.6226645746
H482       H    0.0165531785    0.6615841923    0.6613771683
C463       C    0.5926151255    1.0872008834    0.0919165765
C464       C    0.5466774511    1.0856231904    0.0856234821
C465       C    0.5190004516    1.1142029523    0.1094874938
C466       C    0.5372611267    1.1443604071    0.1396445999
C467       C    0.5831988012    1.1459381000    0.1459376943
C468       C    0.6108758006    1.1173583382    0.1220736827
H469       H    0.6131032939    1.0660444363    0.0742510094
H470       H    0.4849966724    1.1130360540    0.1048301229
H471       H    0.5167729583    1.1655168542    0.1573101670
H472       H    0.6448795799    1.1185252364    0.1267310536
C453       C    0.5206939031    0.8798581130   -0.1025246656
C454       C    0.5466778589    0.9143764344   -0.0856221461
C455       C    0.5909227232    0.9187376582   -0.0988767828
C456       C    0.6091836318    0.8885805605   -0.1290339389
C457       C    0.5831996760    0.8540622390   -0.1459364584
C458       C    0.5389548116    0.8497010153   -0.1326818218
H459       H    0.4879412112    0.8766296746   -0.0927127917
H460       H    0.6101573552    0.9442881351   -0.0863660174
H461       H    0.6419363236    0.8918089988   -0.1388458128
H462       H    0.5197201796    0.8241505384   -0.1451925872
C443       C    0.5558085887    1.1291132550   -0.0722932600
C444       C    0.5466777821    1.0856243512   -0.0856242518
C445       C    0.5558078427    1.0722925476   -0.1291124665
C446       C    0.5740687099    1.1024496479   -0.1592696893
C447       C    0.5831995165    1.1459385517   -0.1459386975
C448       C    0.5740694559    1.1592703553   -0.1024504829
H449       H    0.5490499723    1.1389822525   -0.0401006856
H450       H    0.5490495410    1.0401017936   -0.1389813955
H451       H    0.5808273263    1.0925806504   -0.1914622637
H452       H    0.5808277576    1.1914611093   -0.0925815539
C433       C    0.5450475921    0.8779264044    0.1572204216
C434       C    0.5831996227    0.8540615309    0.1459400947
C435       C    0.6030907265    0.8603534940    0.1045025136
C436       C    0.5848297995    0.8905103306    0.0743452594
C437       C    0.5466777689    0.9143752041    0.0856255863
C438       C    0.5267866652    0.9080832410    0.1270631674
H439       H    0.5303230088    0.8732687174    0.1878949946
H440       H    0.6313313535    0.8426889986    0.0961515443
H441       H    0.5995543828    0.8951680176    0.0436706864
H442       H    0.4985460382    0.9257477365    0.1354141366
C423       C    0.7539554773    0.4029068149    0.3759906102
C424       C    0.7305586770    0.4143758906    0.4143757261
C425       C    0.6889007495    0.3956879585    0.4226035625
C426       C    0.6706396223    0.3655309508    0.3924462830
C427       C    0.6940364227    0.3540618752    0.3540611671
C428       C    0.7356943502    0.3727498072    0.3458333308
H429       H    0.7847931639    0.4167407387    0.3698998742
H430       H    0.6715812026    0.4041767362    0.4510163492
H431       H    0.6398019358    0.3516970271    0.3985370190
H432       H    0.7530138971    0.3642610296    0.3174205440
C413       C    0.7581035301    0.6084489752    0.6151675826
C414       C    0.7305588897    0.5856250684    0.5856254746
C415       C    0.6847532711    0.5929581899    0.5862405501
C416       C    0.6664922928    0.6231152181    0.6163977336
C417       C    0.6940369332    0.6459391248    0.6459398416
C418       C    0.7398425519    0.6386060034    0.6453247661
H419       H    0.7920115855    0.6030205606    0.6147122670
H420       H    0.6643633765    0.5760642473    0.5643736062
H421       H    0.6325842375    0.6285436327    0.6168530492
H422       H    0.7602324464    0.6554999459    0.6671917099
C403       C    0.7215064412    0.3708643995    0.5723160395
C404       C    0.7305588981    0.4143768996    0.5856234455
C405       C    0.7213505963    0.4277321287    0.6290879692
C406       C    0.7030898377    0.3975748577    0.6592450871
C407       C    0.6940373808    0.3540623576    0.6459376811
C408       C    0.7032456826    0.3407071284    0.6024731574
H409       H    0.7283229763    0.3609780610    0.5401410025
H410       H    0.7280509013    0.4599403494    0.6389394393
H411       H    0.6962733026    0.4074611961    0.6914201241
H412       H    0.6965453776    0.3084989078    0.5926216873
C393       C    0.7113369698    0.5703187891    0.3750247359
C394       C    0.7305586747    0.5856239686    0.4143776265
C395       C    0.7315195653    0.6310863535    0.4235735636
C396       C    0.7132587510    0.6612435589    0.3934166100
C397       C    0.6940370461    0.6459383794    0.3540637194
C398       C    0.6930761555    0.6004759946    0.3448677824
H399       H    0.7106256612    0.5366648159    0.3682173540
H400       H    0.7457474334    0.6424166317    0.4527027243
H401       H    0.7139700596    0.6948975321    0.4002239920
H402       H    0.6788482875    0.5891457164    0.3157386216
C383       C    0.2108000538   -0.1246929382    0.0702755702
C384       C    0.2305588410   -0.0856234433    0.0856228784
C385       C    0.2320568285   -0.0767112357    0.1311272632
C386       C    0.2137960287   -0.1068685230    0.1612843399
C387       C    0.1940372415   -0.1459380179    0.1459370317
C388       C    0.1925392541   -0.1548502256    0.1004326469
H389       H    0.2096911540   -0.1312902868    0.0365905061
H390       H    0.2466822599   -0.0477918523    0.1424887262
H391       H    0.2149049285   -0.1002711745    0.1949694040
H392       H    0.1779138226   -0.1837696089    0.0890711838
C373       C    0.2475445405    0.0885223380    0.1286996668
C374       C    0.2305584167    0.0856245116    0.0856248154
C375       C    0.1953110162    0.1128835530    0.0727071273
C376       C    0.1770497395    0.1430404207    0.1028642904
C377       C    0.1940358632    0.1459382471    0.1459391418
C378       C    0.2292832638    0.1186792057    0.1588568299
H379       H    0.2736367720    0.0683435671    0.1382621113
H380       H    0.1827368322    0.1107394549    0.0408228666
H381       H    0.1509575079    0.1632191916    0.0933018459
H382       H    0.2418574477    0.1208233038    0.1907410906
C363       C    0.2079001060    0.0701708058   -0.1230419573
C364       C    0.2305587085    0.0856233901   -0.0856230094
C365       C    0.2349564766    0.1312330667   -0.0783611162
C366       C    0.2166956423    0.1613901589   -0.1085181708
C367       C    0.1940370398    0.1459375745   -0.1459371187
C368       C    0.1896392717    0.1003278980   -0.1531990120
H369       H    0.2046446153    0.0364077984   -0.1284176446
H370       H    0.2517284328    0.1426724582   -0.0506635141
H371       H    0.2199511329    0.1951531663   -0.1031424836
H372       H    0.1728673154    0.0888885065   -0.1808966140
C353       C    0.2525507928   -0.0948285088   -0.1254244337
C354       C    0.2305589083   -0.0856247131   -0.0856247494
C355       C    0.1903059679   -0.1065780605   -0.0759822524
C356       C    0.1720449120   -0.1367352035   -0.1061394396
C357       C    0.1940367964   -0.1459389992   -0.1459391239
C358       C    0.2342897368   -0.1249856519   -0.1555816209
H359       H    0.2823484240   -0.0793175893   -0.1325623861
H360       H    0.1740263793   -0.0997661067   -0.0465223624
H361       H    0.1422472808   -0.1522461230   -0.0990014872
H362       H    0.2505693254   -0.1317976056   -0.1850415109
loop_
_geom_bond_atom_site_label_1
_geom_bond_atom_site_label_2
_geom_bond_distance
_geom_bond_site_symmetry_2
_ccdc_geom_bond_type
C518       H522 1.140       .   S
C383       H389 1.140       .   S
O300       C306 1.304       .   A
Zn284      O300 1.922       .   S
C465       H470 1.140       .   S
C625       H630 1.140       .   S
C508       H512 1.140       .   S
C505       H510 1.140       .   S
C506       H511 1.140       .   S
C573       C574 1.540       .   A
C573       C578 1.540       .   A
C573       H579 1.140       .   S
C513       H519 1.140       .   S
O315       C324 1.304       .   A
Zn308      O315 1.922       .   S
C693       H699 1.140       .   S
O29         C39 1.250       .   A
O29        Cu37 1.951       .   S
C533       H539 1.140       .   S
O22        Cu24 1.951       .   S
O22         C25 1.250       .   A
C685       H690 1.140       .   S
O20        Cu24 1.951       .   S
O20         C27 1.251       .   A
O21        Cu24 1.951       .   S
O21         C26 1.250       .   A
Zn264      O265 1.942       .   S
Zn264      O272 1.922       .   S
Zn264      O276 1.922       .   S
Zn264      O275 1.922       .   S
Zn261      O265 1.942       .   S
Zn261      O270 1.922       .   S
Zn261      O266 1.922       .   S
Zn261      O277 1.922       .   S
O48        Cu52 1.951       .   S
O49        Cu52 1.951       .   S
O50        Cu52 1.951       .   S
Cu51       Cu52 2.630       .   S
O47        Cu52 1.951       .   S
O43        Cu51 1.951       .   S
O44        Cu51 1.951       .   S
O45        Cu51 1.951       .   S
O46        Cu51 1.951       .   S
Zn262      O265 1.942       .   S
Zn262      O273 1.922       .   S
Zn262      O267 1.922       .   S
Zn262      O269 1.922       .   S
C563       C568 1.540       .   A
C567       C568 1.540       .   A
C568       H572 1.140       .   S
C423       H429 1.140       .   S
Zn218      O230 1.922       .   S
O230       C237 1.304       .   A
Zn215      O231 1.922       .   S
O231       C237 1.304       .   A
C403       H409 1.140       .   S
C826       H831 1.140       .   S
O144      Cu149 1.951       .   S
Cu149     Cu150 2.630       .   S
O141      Cu149 1.951       .   S
O142      Cu149 1.951       .   S
O143      Cu149 1.951       .   S
C828       H832 1.140       .   S
C807       C808 1.540       .   A
C808       H812 1.140       .   S
C803       C808 1.540       .   A
C804       C805 1.540       .   A
C805       C806 1.540       .   A
C805       H810 1.140       .   S
C804       C166 1.640       .   S
C803       C804 1.540       .   A
C807       C190 1.640       .   S
C806       C807 1.540       .   A
C806       H811 1.140       .   S
C803       H809 1.140       .   S
C458       H462 1.140       .   S
C455       H460 1.140       .   S
C456       H461 1.140       .   S
C488       H492 1.140       .   S
C483       C488 1.540       .   A
C487       C488 1.540       .   A
O44         C54 1.250       .   A
C737       C738 1.540       .   A
C733       C738 1.540       .   A
C738       H742 1.140       .   S
O45         C55 1.250       .   A
O321       C328 1.304       .   A
C328       C587 1.640       .   S
O319       C328 1.304       .   A
O59         C69 1.250       .   A
O59        Cu65 1.951       .   S
O58         C68 1.250       .   A
O58        Cu65 1.951       .   S
Zn332      O337 1.922       .   S
Zn332      O334 1.942       .   S
Zn332      O343 1.922       .   S
Zn332      O340 1.922       .   S
O50         C53 1.250       .   A
O57         C67 1.250       .   A
O57        Cu65 1.951       .   S
C735       C736 1.540       .   A
C734       C735 1.540       .   A
C735       H740 1.140       .   S
C765       H770 1.140       .   S
C764       C765 1.540       .   A
C765       C766 1.540       .   A
C516       H521 1.140       .   S
C733       C734 1.540       .   A
C232       C734 1.640       .   S
C766       H771 1.140       .   S
C766       C767 1.540       .   A
C281       C767 1.640   1_445   S
C767       C768 1.540       .   A
O162      Cu164 1.951       .   S
O162       C165 1.250       .   A
C664       C665 1.540       .   A
C663       C664 1.540       .   A
C664       C111 1.640       .   S
O160       C167 1.251       .   A
O160      Cu164 1.951       .   S
O161       C166 1.250       .   A
O161      Cu164 1.951       .   S
C747       C748 1.540       .   A
C743       C748 1.540       .   A
C748       H752 1.140       .   S
C746       C747 1.540       .   A
C745       C746 1.540       .   A
C746       H751 1.140       .   S
C301       C747 1.640       .   S
C744       C137 1.640       .   S
C744       C745 1.540       .   A
C743       C744 1.540       .   A
C745       H750 1.140       .   S
C743       H749 1.140       .   S
Zn263      O265 1.942       .   S
C485       H490 1.140       .   S
C484       C485 1.540       .   A
C485       C486 1.540       .   A
C483       H489 1.140       .   S
O30         C40 1.250       .   A
O35         C40 1.250       .   A
C40        C444 1.640       .   S
O31         C41 1.250       .   A
O34         C41 1.251       .   A
C41        C454 1.640       .   S
O33         C42 1.250       .   A
O32         C42 1.250       .   A
C464        C42 1.640       .   S
C758       H762 1.140       .   S
C763       H769 1.140       .   S
C635       H640 1.140       .   S
C636       H641 1.140       .   S
O75        Cu80 1.951       .   S
O77        Cu80 1.951       .   S
O76        Cu80 1.951       .   S
Cu79       Cu80 2.630       .   S
O78        Cu80 1.951       .   S
C596       C597 1.540       .   A
C597       C598 1.540       .   A
C597       C256 1.640   1_654   S
C596       H601 1.140       .   S
C595       C596 1.540       .   A
C595       H600 1.140       .   S
C594       C595 1.540       .   A
C594        C98 1.640       .   S
C593       C594 1.540       .   A
C593       C598 1.540       .   A
C598       H602 1.140       .   S
C736       C737 1.540       .   A
C737       C139 1.640       .   S
Zn331      O342 1.922       .   S
O342       C351 1.304       .   A
Zn310      O311 1.942       .   S
Zn310      O318 1.922       .   S
Zn310      O322 1.922       .   S
Zn310      O321 1.922       .   S
O343       C350 1.304       .   A
C698       H702 1.140       .   S
C693       C698 1.540       .   A
C697       C698 1.540       .   A
O336       C348 1.304       .   A
C427       C348 1.640       .   S
O340       C348 1.304       .   A
O339       C349 1.304       .   A
O337       C349 1.304       .   A
C349       C707 1.640   1_545   S
C614        C95 1.640       .   S
C613       C614 1.540       .   A
C614       C615 1.540       .   A
C693       C694 1.540       .   A
C694       C126 1.640       .   S
C694       C695 1.540       .   A
O338       C347 1.304       .   A
O335       C347 1.304       .   A
C347       C667 1.640       .   S
C696       H701 1.140       .   S
C695       C696 1.540       .   A
C696       C697 1.540       .   A
C329       C697 1.640   1_455   S
C486       H491 1.140       .   S
C686       H691 1.140       .   S
C493       H499 1.140       .   S
C613       C618 1.540       .   A
C618       H622 1.140       .   S
C617       C618 1.540       .   A
C615       H620 1.140       .   S
C615       C616 1.540       .   A
C688       H692 1.140       .   S
C753       C758 1.540       .   A
C753       C754 1.540       .   A
C753       H759 1.140       .   S
C526       C527 1.540       .   A
C525       C526 1.540       .   A
C526       H531 1.140       .   S
C793       H799 1.140       .   S
C524       C525 1.540       .   A
C523       C524 1.540       .   A
C234       C524 1.640   1_556   S
C525       H530 1.140       .   S
C798       H802 1.140       .   S
C563       H569 1.140       .   S
C563       C564 1.540       .   A
C785       H790 1.140       .   S
C786       H791 1.140       .   S
C788       H792 1.140       .   S
O276       C283 1.304       .   A
O277       C283 1.304       .   A
C514       C283 1.640   1_654   S
O273       C282 1.304       .   A
O275       C282 1.304       .   A
C282       C487 1.640       .   S
O272       C281 1.304       .   A
O274       C281 1.304       .   A
O270       C280 1.304       .   A
C280       C367 1.640   1_556   S
O268       C280 1.304       .   A
C695       H700 1.140       .   S
C757       C259 1.640   1_655   S
C757       C758 1.540       .   A
C756       C757 1.540       .   A
C666       H671 1.140       .   S
C444       C445 1.540       .   A
C445       C446 1.540       .   A
C445       H450 1.140       .   S
C566       H571 1.140       .   S
C566       C567 1.540       .   A
C565       C566 1.540       .   A
C447       C448 1.540       .   A
C446       C447 1.540       .   A
C237       C447 1.640   1_546   S
O7         Cu10 1.951       .   S
O6         Cu10 1.951       .   S
O5         Cu10 1.951       .   S
Cu9        Cu10 2.630       .   S
O8         Cu10 1.951       .   S
O102       C112 1.250       .   A
O103       C112 1.250       .   A
C634       C112 1.640       .   S
O101       C111 1.250       .   A
O104       C111 1.251       .   A
O100       C110 1.250       .   A
C110       C654 1.640       .   S
O105       C110 1.250       .   A
O103      Cu108 1.951       .   S
O104      Cu108 1.951       .   S
O105      Cu108 1.951       .   S
O106      Cu108 1.951       .   S
Cu107     Cu108 2.630       .   S
O88        Cu93 1.951       .   S
O88         C98 1.250       .   A
Zn263      O271 1.922       .   S
Zn263      O268 1.922       .   S
Zn263      O274 1.922       .   S
O85        Cu93 1.951       .   S
O85         C95 1.250       .   A
O86        Cu93 1.951       .   S
O86         C96 1.250       .   A
O87        Cu93 1.951       .   S
O87         C97 1.250       .   A
O100      Cu107 1.951       .   S
O101      Cu107 1.951       .   S
O102      Cu107 1.951       .   S
O99       Cu107 1.951       .   S
Zn287      O298 1.922       .   S
O298       C305 1.304       .   A
Zn287      O299 1.922       .   S
O299       C306 1.304       .   A
C443       C444 1.540       .   A
C443       C448 1.540       .   A
C443       H449 1.140       .   S
C418       H422 1.140       .   S
C415       H420 1.140       .   S
C416       H421 1.140       .   S
Zn285      O290 1.922       .   S
O290       C302 1.304       .   A
Zn286      O291 1.922       .   S
O291       C303 1.304       .   A
Zn285      O292 1.922       .   S
O292       C301 1.304       .   A
Zn284      O293 1.922       .   S
O293       C303 1.304       .   A
Zn286      O294 1.922       .   S
O294       C302 1.304       .   A
Zn287      O295 1.922       .   S
O295       C304 1.304       .   A
Zn285      O296 1.922       .   S
O296       C305 1.304       .   A
Zn286      O297 1.922       .   S
O297       C304 1.304       .   A
O17        Cu23 1.951       .   S
O17         C27 1.250       .   A
O16         C26 1.250       .   A
O16        Cu23 1.951       .   S
O15        Cu23 1.951       .   S
O15         C25 1.250       .   A
C543       H549 1.140       .   S
C536       H541 1.140       .   S
C535       H540 1.140       .   S
O19        Cu24 1.951       .   S
O19         C28 1.250       .   A
O18         C28 1.250       .   A
O18        Cu23 1.951       .   S
O220       C232 1.304       .   A
O223       C232 1.304       .   A
C233       C407 1.640       .   S
O221       C233 1.304       .   A
O225       C233 1.304       .   A
O267       C279 1.304       .   A
O266       C278 1.304       .   A
C236       C647 1.640       .   S
O229       C236 1.304       .   A
O227       C236 1.304       .   A
O222       C234 1.304       .   A
O224       C234 1.304       .   A
O228       C235 1.304       .   A
C235       C777 1.640   1_545   S
O226       C235 1.304       .   A
Zn330      O346 1.922       .   S
O346       C352 1.304       .   A
Zn333      O344 1.922       .   S
O344       C351 1.304       .   A
Zn333      O345 1.922       .   S
O345       C352 1.304       .   A
O269       C278 1.304       .   A
Zn333      O341 1.922       .   S
O341       C350 1.304       .   A
O127       C137 1.250       .   A
O127      Cu135 1.951       .   S
C795       H800 1.140       .   S
C796       H801 1.140       .   S
O120      Cu122 1.951       .   S
O120       C123 1.250       .   A
O128      Cu135 1.951       .   S
O128       C138 1.250       .   A
O129       C139 1.250       .   A
O129      Cu135 1.951       .   S
C623       C628 1.540       .   A
C628       H632 1.140       .   S
C627       C628 1.540       .   A
C623       C624 1.540       .   A
C623       H629 1.140       .   S
C564        C82 1.640       .   S
C564       C565 1.540       .   A
C624       C625 1.540       .   A
C625       C626 1.540       .   A
C624        C96 1.640       .   S
C627       C326 1.640   1_655   S
C626       C627 1.540       .   A
C626       H631 1.140       .   S
Zn192      O197 1.922       .   S
O197       C209 1.304       .   A
Zn193      O196 1.942       .   S
Zn192      O196 1.942       .   S
Zn195      O196 1.942       .   S
Zn194      O196 1.942       .   S
C575       H580 1.140       .   S
C565       H570 1.140       .   S
O199       C211 1.304       .   A
Zn194      O199 1.922       .   S
Zn193      O198 1.922       .   S
O198       C210 1.304       .   A
C305       C457 1.640   1_556   S
C456       C457 1.540       .   A
C457       C458 1.540       .   A
C723       H729 1.140       .   S
C716       H721 1.140       .   S
C715       H720 1.140       .   S
C718       H722 1.140       .   S
C825       H830 1.140       .   S
C714       C715 1.540       .   A
C715       C716 1.540       .   A
C140       C714 1.640       .   S
C713       C714 1.540       .   A
C716       C717 1.540       .   A
C717       C718 1.540       .   A
C717       C257 1.640       .   S
C713       C718 1.540       .   A
C713       H719 1.140       .   S
C496       H501 1.140       .   S
C496       C497 1.540       .   A
C495       C496 1.540       .   A
C497       C187 1.640       .   S
C497       C498 1.540       .   A
C54        C494 1.640       .   S
C494       C495 1.540       .   A
C493       C494 1.540       .   A
C495       H500 1.140       .   S
C658       H662 1.140       .   S
C657       C658 1.540       .   A
C653       C658 1.540       .   A
C306       C577 1.640       .   S
C654       C655 1.540       .   A
C655       H660 1.140       .   S
C655       C656 1.540       .   A
C304       C787 1.640       .   S
C302       C617 1.640   1_556   S
C303       C417 1.640       .   S
O289       C301 1.304       .   A
C653       H659 1.140       .   S
C606       H611 1.140       .   S
C605       H610 1.140       .   S
C608       H612 1.140       .   S
C613       H619 1.140       .   S
C585       H590 1.140       .   S
C586       H591 1.140       .   S
O36         C39 1.250       .   A
C39        C437 1.640       .   S
O146       C153 1.251       .   A
C153       C774 1.640       .   S
O143       C153 1.250       .   A
O147       C152 1.250       .   A
C152       C764 1.640       .   S
O142       C152 1.250       .   A
O148       C151 1.250       .   A
O141       C151 1.250       .   A
C151       C784 1.640       .   S
C405       H410 1.140       .   S
C404       C405 1.540       .   A
C405       C406 1.540       .   A
C403       C404 1.540       .   A
C28        C404 1.640       .   S
C406       C407 1.540       .   A
C407       C408 1.540       .   A
O144       C154 1.250       .   A
O145       C154 1.250       .   A
C154       C754 1.640       .   S
C408       H412 1.140       .   S
C403       C408 1.540       .   A
C393       C398 1.540       .   A
C393       C394 1.540       .   A
C393       H399 1.140       .   S
C395       H400 1.140       .   S
C394       C395 1.540       .   A
C395       C396 1.540       .   A
C27        C394 1.640       .   S
C210       C397 1.640       .   S
C396       C397 1.540       .   A
C397       C398 1.540       .   A
C398       H402 1.140       .   S
O254       C260 1.304       .   A
Zn238      O254 1.922       .   S
O250       C259 1.304       .   A
Zn239      O250 1.922       .   S
O251       C258 1.304       .   A
Zn240      O251 1.922       .   S
O252       C259 1.304       .   A
Zn241      O252 1.922       .   S
O253       C260 1.304       .   A
Zn241      O253 1.922       .   S
C498       H502 1.140       .   S
C503       H509 1.140       .   S
C815       H820 1.140       .   S
C815       C816 1.540       .   A
C814       C815 1.540       .   A
C278       C727 1.640       .   S
O271       C279 1.304       .   A
C279       C637 1.640       .   S
Zn218      O229 1.922       .   S
Zn217      O228 1.922       .   S
C475       C476 1.540       .   A
C476       C477 1.540       .   A
C476       H481 1.140       .   S
C477       C478 1.540       .   A
C255       C477 1.640       .   S
O62        Cu66 1.951       .   S
O63        Cu66 1.951       .   S
O61        Cu66 1.951       .   S
O64        Cu66 1.951       .   S
Cu65       Cu66 2.630       .   S
C577       C578 1.540       .   A
C578       H582 1.140       .   S
C378       H382 1.140       .   S
O60        Cu65 1.951       .   S
Zn171      O182 1.922       .   S
Zn171      O176 1.922       .   S
Zn171      O179 1.922       .   S
Zn171      O173 1.942       .   S
Zn215      O220 1.922       .   S
Zn216      O223 1.922       .   S
Zn172      O180 1.922       .   S
Zn172      O183 1.922       .   S
Zn172      O184 1.922       .   S
Zn172      O173 1.942       .   S
Zn217      O225 1.922       .   S
Zn215      O224 1.922       .   S
Zn216      O227 1.922       .   S
Zn218      O226 1.922       .   S
C463       H469 1.140       .   S
O130      Cu135 1.951       .   S
Cu135     Cu136 2.630       .   S
O131      Cu136 1.951       .   S
O133      Cu136 1.951       .   S
O132      Cu136 1.951       .   S
O134      Cu136 1.951       .   S
C376       H381 1.140       .   S
C365       H370 1.140       .   S
C366       H371 1.140       .   S
C373       H379 1.140       .   S
C466       H471 1.140       .   S
C468       H472 1.140       .   S
O48         C55 1.251       .   A
O49         C54 1.250       .   A
O317       C325 1.304       .   A
Zn309      O317 1.922       .   S
Zn307      O316 1.922       .   S
O316       C326 1.304       .   A
Zn307      O311 1.942       .   S
Zn308      O311 1.942       .   S
Zn309      O311 1.942       .   S
O313       C325 1.304       .   A
Zn308      O313 1.922       .   S
Zn307      O312 1.922       .   S
O312       C324 1.304       .   A
C493       C498 1.540       .   A
O43         C53 1.250       .   A
Zn308      O319 1.922       .   S
O318       C327 1.304       .   A
O46         C56 1.250       .   A
O47         C56 1.250       .   A
C548       H552 1.140       .   S
C545       H550 1.140       .   S
O179       C187 1.304       .   A
Zn169      O178 1.922       .   S
O178       C188 1.304       .   A
C616       H621 1.140       .   S
C616       C617 1.540       .   A
Zn170      O175 1.922       .   S
O175       C187 1.304       .   A
O174       C186 1.304       .   A
Zn169      O174 1.922       .   S
Zn170      O177 1.922       .   S
O177       C186 1.304       .   A
O176       C188 1.304       .   A
C755       H760 1.140       .   S
C754       C755 1.540       .   A
C755       C756 1.540       .   A
Zn170      O173 1.942       .   S
Zn169      O173 1.942       .   S
C756       H761 1.140       .   S
C367       C368 1.540       .   A
C366       C367 1.540       .   A
C353       C354 1.540       .   A
C353       C358 1.540       .   A
C353       H359 1.140       .   S
C583       H589 1.140       .   S
C467       C352 1.640   1_565   S
C724       C725 1.540       .   A
C725       C726 1.540       .   A
C725       H730 1.140       .   S
C705       H710 1.140       .   S
C706       H711 1.140       .   S
C708       H712 1.140       .   S
C646       H651 1.140       .   S
C70        C527 1.640       .   S
O60         C70 1.250       .   A
O61         C70 1.250       .   A
C648       H652 1.140       .   S
Cu93       Cu94 2.630       .   S
O92        Cu94 1.951       .   S
O89        Cu94 1.951       .   S
O91        Cu94 1.951       .   S
O90        Cu94 1.951       .   S
C533       C538 1.540       .   A
C533       C534 1.540       .   A
C354       C355 1.540       .   A
C355       C356 1.540       .   A
C355       H360 1.140       .   S
C11        C354 1.640       .   S
C356       C357 1.540       .   A
C357       C358 1.540       .   A
C258       C357 1.640   1_566   S
C356       H361 1.140       .   S
C351       C817 1.640       .   S
C350       C547 1.640       .   S
Zn309      O314 1.922       .   S
Zn309      O320 1.922       .   S
C138       C724 1.640       .   S
C723       C724 1.540       .   A
Zn307      O323 1.922       .   S
C726       C727 1.540       .   A
C726       H731 1.140       .   S
C727       C728 1.540       .   A
C358       H362 1.140       .   S
C723       C728 1.540       .   A
C683       C688 1.540       .   A
C687       C688 1.540       .   A
C683       H689 1.140       .   S
C683       C684 1.540       .   A
C687       C188 1.640   1_665   S
C686       C687 1.540       .   A
C685       C686 1.540       .   A
C684       C685 1.540       .   A
C684       C124 1.640       .   S
C665       C666 1.540       .   A
C666       C667 1.540       .   A
C675       H680 1.140       .   S
Zn238      O242 1.942       .   S
Zn239      O242 1.942       .   S
Zn240      O242 1.942       .   S
Zn241      O242 1.942       .   S
C676       H681 1.140       .   S
C728       H732 1.140       .   S
C665       H670 1.140       .   S
Cu23       Cu24 2.630       .   S
C534       C535 1.540       .   A
C535       C536 1.540       .   A
C537        C69 1.640       .   S
C537       C538 1.540       .   A
C536       C537 1.540       .   A
C778       H782 1.140       .   S
C776       H781 1.140       .   S
C775       H780 1.140       .   S
C667       C668 1.540       .   A
C433       C438 1.540       .   A
C438       H442 1.140       .   S
C437       C438 1.540       .   A
C653       C654 1.540       .   A
Zn238      O247 1.922       .   S
Zn238      O243 1.922       .   S
Zn239      O246 1.922       .   S
Zn239      O244 1.922       .   S
C534       C186 1.640   1_655   S
O113       C123 1.250       .   A
C123       C677 1.640       .   S
C433       H439 1.140       .   S
C433       C434 1.540       .   A
O117       C126 1.250       .   A
O116       C126 1.250       .   A
C656       C657 1.540       .   A
C656       H661 1.140       .   S
O119       C124 1.250       .   A
O114       C124 1.250       .   A
C125       C704 1.640       .   S
O118       C125 1.251       .   A
O115       C125 1.250       .   A
C663       C668 1.540       .   A
C663       H669 1.140       .   S
O320       C327 1.304       .   A
O322       C329 1.304       .   A
O323       C329 1.304       .   A
C426       H431 1.140       .   S
C425       H430 1.140       .   S
Zn284      O289 1.922       .   S
Zn287      O288 1.942       .   S
Zn286      O288 1.942       .   S
Zn285      O288 1.942       .   S
Zn284      O288 1.942       .   S
O203       C212 1.304       .   A
Zn195      O203 1.922       .   S
C97        C604 1.640       .   S
O90         C97 1.251       .   A
O91         C96 1.250       .   A
O92         C95 1.250       .   A
O202       C210 1.304       .   A
Zn194      O202 1.922       .   S
C528       H532 1.140       .   S
O89         C98 1.250       .   A
C555       C556 1.540       .   A
C554       C555 1.540       .   A
C555       H560 1.140       .   S
C668       H672 1.140       .   S
C68        C544 1.640       .   S
C544       C545 1.540       .   A
C543       C544 1.540       .   A
C545       C546 1.540       .   A
C546       C547 1.540       .   A
C546       H551 1.140       .   S
C81        C554 1.640       .   S
C553       C554 1.540       .   A
C543       C548 1.540       .   A
Zn218      O219 1.942       .   S
Zn215      O219 1.942       .   S
Zn216      O219 1.942       .   S
Zn217      O219 1.942       .   S
C547       C548 1.540       .   A
O131       C140 1.250       .   A
O130       C140 1.250       .   A
O133       C138 1.250       .   A
O132       C139 1.251       .   A
O134       C137 1.250       .   A
C553       H559 1.140       .   S
C553       C558 1.540       .   A
C813       H819 1.140       .   S
C325       C827 1.640       .   S
C826       C827 1.540       .   A
C827       C828 1.540       .   A
C825       C826 1.540       .   A
C824       C825 1.540       .   A
C824       C168 1.640       .   S
C823       C824 1.540       .   A
C823       H829 1.140       .   S
C823       C828 1.540       .   A
Cu163     Cu164 2.630       .   S
O159      Cu164 1.951       .   S
O157      Cu163 1.951       .   S
O156      Cu163 1.951       .   S
O155      Cu163 1.951       .   S
O158      Cu163 1.951       .   S
C435       H440 1.140       .   S
C436       H441 1.140       .   S
C557       C558 1.540       .   A
C558       H562 1.140       .   S
O145      Cu150 1.951       .   S
O146      Cu150 1.951       .   S
O147      Cu150 1.951       .   S
C763       C764 1.540       .   A
C768       H772 1.140       .   S
C763       C768 1.540       .   A
C736       H741 1.140       .   S
C483       C484 1.540       .   A
O148      Cu150 1.951       .   S
C56        C484 1.640       .   S
C486       C487 1.540       .   A
C466       C467 1.540       .   A
C467       C468 1.540       .   A
C647       C648 1.540       .   A
C643       C648 1.540       .   A
C646       C647 1.540       .   A
C645       C646 1.540       .   A
C644       C645 1.540       .   A
C645       H650 1.140       .   S
C643       C644 1.540       .   A
C109       C644 1.640       .   S
C643       H649 1.140       .   S
C465       C466 1.540       .   A
C464       C465 1.540       .   A
C633       C634 1.540       .   A
C633       H639 1.140       .   S
C633       C638 1.540       .   A
Zn169      O185 1.922       .   S
C463       C464 1.540       .   A
C463       C468 1.540       .   A
C26        C424 1.640       .   S
C25        C414 1.640       .   S
C576       H581 1.140       .   S
C783       H789 1.140       .   S
O159       C168 1.250       .   A
O158       C168 1.250       .   A
O156       C166 1.250       .   A
O157       C167 1.250       .   A
C167       C814 1.640       .   S
C165       C794 1.640       .   S
O155       C165 1.250       .   A
C368       H372 1.140       .   S
C363       C368 1.540       .   A
C538       H542 1.140       .   S
C364       C365 1.540       .   A
C363       C364 1.540       .   A
C14        C364 1.640       .   S
C365       C366 1.540       .   A
C363       H369 1.140       .   S
O249       C258 1.304       .   A
Zn241      O249 1.922       .   S
Zn240      O248 1.922       .   S
O248       C256 1.304       .   A
O247       C257 1.304       .   A
O246       C255 1.304       .   A
Zn240      O245 1.922       .   S
O245       C257 1.304       .   A
O244       C256 1.304       .   A
O243       C255 1.304       .   A
C657       C189 1.640       .   S
O180       C189 1.304       .   A
O182       C189 1.304       .   A
C636       C637 1.540       .   A
C635       C636 1.540       .   A
C423       C424 1.540       .   A
C424       C425 1.540       .   A
C818       H822 1.140       .   S
C813       C818 1.540       .   A
C817       C818 1.540       .   A
C260       C557 1.640       .   S
Zn170      O181 1.922       .   S
O181       C190 1.304       .   A
C503       C508 1.540       .   A
C507       C508 1.540       .   A
O74        Cu79 1.951       .   S
O71        Cu79 1.951       .   S
O73        Cu79 1.951       .   S
O72        Cu79 1.951       .   S
C503       C504 1.540       .   A
C504        C55 1.640       .   S
C504       C505 1.540       .   A
C505       C506 1.540       .   A
C506       C507 1.540       .   A
C507       C324 1.640       .   S
O119      Cu122 1.951       .   S
O118      Cu122 1.951       .   S
O117      Cu122 1.951       .   S
Cu121     Cu122 2.630       .   S
O113      Cu121 1.951       .   S
O116      Cu121 1.951       .   S
O115      Cu121 1.951       .   S
O114      Cu121 1.951       .   S
C638       H642 1.140       .   S
C773       C778 1.540       .   A
C773       H779 1.140       .   S
C773       C774 1.540       .   A
C593       H599 1.140       .   S
C556       H561 1.140       .   S
C214       C434 1.640       .   S
C434       C435 1.540       .   A
C406       H411 1.140       .   S
C435       C436 1.540       .   A
O207       C214 1.304       .   A
O208       C214 1.304       .   A
O78         C81 1.250       .   A
C212       C607 1.640       .   S
O205       C212 1.304       .   A
C213       C674 1.640       .   S
O206       C213 1.304       .   A
O204       C213 1.304       .   A
O75         C84 1.250       .   A
O74         C84 1.250       .   A
O77         C82 1.250       .   A
O76         C83 1.251       .   A
O71         C81 1.250       .   A
O73         C83 1.250       .   A
O72         C82 1.250       .   A
C603       C608 1.540       .   A
C603       H609 1.140       .   S
C603       C604 1.540       .   A
C606       C607 1.540       .   A
C607       C608 1.540       .   A
C605       C606 1.540       .   A
C604       C605 1.540       .   A
O106       C109 1.250       .   A
C583       C588 1.540       .   A
C583       C584 1.540       .   A
O63         C68 1.250       .   A
O62         C69 1.251       .   A
O64         C67 1.250       .   A
C517        C67 1.640       .   S
C703       H709 1.140       .   S
C396       H401 1.140       .   S
C567       C209 1.640       .   S
C574        C84 1.640       .   S
C574       C575 1.540       .   A
O314       C326 1.304       .   A
C387       C327 1.640   1_545   S
Zn333      O334 1.942       .   S
Zn331      O336 1.922       .   S
Zn331      O334 1.942       .   S
Zn331      O338 1.922       .   S
Zn330      O335 1.922       .   S
Zn330      O334 1.942       .   S
Zn330      O339 1.922       .   S
C733       H739 1.140       .   S
C527       C528 1.540       .   A
C428       H432 1.140       .   S
C384        C13 1.640       .   S
O6          C13 1.251       .   A
O3          C13 1.250       .   A
O7          C12 1.250       .   A
C12        C374 1.640       .   S
O2          C12 1.250       .   A
O1          C11 1.250       .   A
O8          C11 1.250       .   A
O5          C14 1.250       .   A
O4          C14 1.250       .   A
O31        Cu37 1.951       .   S
O30        Cu37 1.951       .   S
O32        Cu37 1.951       .   S
Cu37       Cu38 2.630       .   S
C413       H419 1.140       .   S
O33        Cu38 1.951       .   S
O35        Cu38 1.951       .   S
O34        Cu38 1.951       .   S
O36        Cu38 1.951       .   S
C783       C788 1.540       .   A
C783       C784 1.540       .   A
C423       C428 1.540       .   A
C427       C428 1.540       .   A
C786       C787 1.540       .   A
C785       C786 1.540       .   A
C787       C788 1.540       .   A
C784       C785 1.540       .   A
C426       C427 1.540       .   A
C425       C426 1.540       .   A
O201       C211 1.304       .   A
C797       C211 1.640       .   S
C678       H682 1.140       .   S
C83        C584 1.640       .   S
Zn192      O201 1.922       .   S
Zn193      O200 1.922       .   S
O200       C209 1.304       .   A
Zn195      O207 1.922       .   S
Zn195      O206 1.922       .   S
Zn194      O205 1.922       .   S
Zn193      O204 1.922       .   S
Zn192      O208 1.922       .   S
C816       H821 1.140       .   S
C556       C557 1.540       .   A
C813       C814 1.540       .   A
C816       C817 1.540       .   A
O4          Cu9 1.951       .   S
O3          Cu9 1.951       .   S
O2          Cu9 1.951       .   S
O1          Cu9 1.951       .   S
C448       H452 1.140       .   S
C446       H451 1.140       .   S
C453       H459 1.140       .   S
C776       C777 1.540       .   A
C777       C778 1.540       .   A
C775       C776 1.540       .   A
C774       C775 1.540       .   A
C673       C678 1.540       .   A
C677       C678 1.540       .   A
C673       H679 1.140       .   S
C673       C674 1.540       .   A
C676       C677 1.540       .   A
C675       C676 1.540       .   A
C674       C675 1.540       .   A
C53        C474 1.640       .   S
C584       C585 1.540       .   A
C585       C586 1.540       .   A
C586       C587 1.540       .   A
C587       C588 1.540       .   A
C474       C475 1.540       .   A
C473       C474 1.540       .   A
C475       H480 1.140       .   S
C377       C378 1.540       .   A
C373       C378 1.540       .   A
C377       C191 1.640       .   S
C376       C377 1.540       .   A
C375       C376 1.540       .   A
C374       C375 1.540       .   A
C375       H380 1.140       .   S
C373       C374 1.540       .   A
C588       H592 1.140       .   S
C478       H482 1.140       .   S
O184       C191 1.304       .   A
O185       C191 1.304       .   A
O183       C190 1.304       .   A
Zn216      O221 1.922       .   S
C576       C577 1.540       .   A
C523       H529 1.140       .   S
C523       C528 1.540       .   A
Zn217      O222 1.922       .   S
C436       C437 1.540       .   A
C473       C478 1.540       .   A
C453       C458 1.540       .   A
C453       C454 1.540       .   A
C513       C518 1.540       .   A
C517       C518 1.540       .   A
C455       C456 1.540       .   A
O99        C109 1.250       .   A
C454       C455 1.540       .   A
C513       C514 1.540       .   A
C516       C517 1.540       .   A
C515       C516 1.540       .   A
C515       H520 1.140       .   S
C514       C515 1.540       .   A
C387       C388 1.540       .   A
C383       C388 1.540       .   A
C388       H392 1.140       .   S
C413       C414 1.540       .   A
C413       C418 1.540       .   A
C385       H390 1.140       .   S
C386       H391 1.140       .   S
C416       C417 1.540       .   A
C415       C416 1.540       .   A
C637       C638 1.540       .   A
C634       C635 1.540       .   A
C575       C576 1.540       .   A
C417       C418 1.540       .   A
C703       C708 1.540       .   A
C707       C708 1.540       .   A
C703       C704 1.540       .   A
C706       C707 1.540       .   A
C705       C706 1.540       .   A
C704       C705 1.540       .   A
C383       C384 1.540       .   A
C473       H479 1.140       .   S
C414       C415 1.540       .   A
C386       C387 1.540       .   A
C385       C386 1.540       .   A
C384       C385 1.540       .   A
C797       C798 1.540       .   A
C793       C798 1.540       .   A
C794       C795 1.540       .   A
C795       C796 1.540       .   A
C793       C794 1.540       .   A
C796       C797 1.540       .   A
