data_soc_v1-4c_Cu_1_Ch_v2-6c_Cr_1_Ch_1B_4H_Ch
_audit_creation_date              2019-08-20
_audit_creation_method            'tobacco_3.0'
_symmetry_space_group_name_H-M    'P1'
_symmetry_Int_Tables_number       1
_symmetry_cell_setting            triclinic
loop_
_symmetry_equiv_pos_as_xyz
  x,y,z
_cell_length_a                    32.0191068716291
_cell_length_b                    32.019096598164516
_cell_length_c                    32.019279120919755
_cell_angle_alpha                 89.99996806063687
_cell_angle_beta                  89.99974480580013
_cell_angle_gamma                 90.00006393290712
loop_
_atom_site_label
_atom_site_type_symbol
_atom_site_fract_x
_atom_site_fract_y
_atom_site_fract_z
O1         O    0.2847262629    0.0428479836   -0.0428475211
O2         O    0.2847250350   -0.0428486784    0.0428467207
O3         O    0.2847237084   -0.0428524995   -0.0428454639
O4         O    0.2847275969    0.0428518030    0.0428509098
O5         O    0.2152762990    0.0428524978    0.0428517102
O6         O    0.2152725240   -0.0428455594   -0.0428446620
O7         O    0.2152737371   -0.0428479836    0.0428475211
O8         O    0.2152749650    0.0428486784   -0.0428467207
Cu9       Cu    0.2910634937   -0.0000031208    0.0000014853
Cu10      Cu    0.2089365063    0.0000031208   -0.0000014853
C11        C    0.2499998797    0.0554835127   -0.0554830086
C12        C    0.2500001203   -0.0554835127    0.0554830086
C13        C    0.2500002930   -0.0554811253   -0.0554814687
C14        C    0.2499997070    0.0554811253    0.0554814687
O15        O    0.7152793675    0.4571516558    0.4571491890
O16        O    0.7152811911    0.5428477269    0.5428439262
O17        O    0.7152825841    0.5428521389    0.4571517415
O18        O    0.7152779671    0.4571472455    0.5428476199
O19        O    0.7847292651    0.4571460142    0.5428478554
O20        O    0.7847337685    0.5428446623    0.4571519785
O21        O    0.7847324890    0.5428464956    0.5428441617
O22        O    0.7847306655    0.4571504245    0.4571494245
Cu23      Cu    0.7089424346    0.5000025137    0.4999984947
Cu24      Cu    0.7910694219    0.4999956378    0.4999948560
C25        C    0.7500056629    0.4445159456    0.4445133460
C26        C    0.7500061937    0.5554822059    0.5554800047
C27        C    0.7500061068    0.5554805836    0.4445155274
C28        C    0.7500057497    0.4445175679    0.5554778233
O29        O    0.5838968775    1.0428466478    1.0428475009
O30        O    0.5838987011    0.9571501450    0.9571531955
O31        O    0.5839000941    0.9571461648    1.0428453802
O32        O    0.5838954771    1.0428506264    0.9571490700
O33        O    0.6533467750    1.0428520126    0.9571482159
O34        O    0.6533512784    0.9571537963    1.0428445245
O35        O    0.6533499990    0.9571515313    0.9571523414
O36        O    0.6533481754    1.0428480341    1.0428466468
Cu37      Cu    0.5775599446    0.9999955600    0.9999984676
Cu38      Cu    0.6596869319    1.0000026192    1.0000013747
C39        C    0.6186231728    1.0554824993    1.0554829710
C40        C    0.6186237036    0.9445156798    0.9445168714
C41        C    0.6186236168    0.9445178612    1.0554813487
C42        C    0.6186232597    1.0554803179    0.9445184936
O43        O    0.1533495893    0.4571512047    0.5428471339
O44        O    0.1533483614    0.5428472122    0.4571522377
O45        O    0.1533470347    0.5428516877    0.5428444223
O46        O    0.1533509233    0.4571467308    0.4571487031
O47        O    0.0838996253    0.4571458810    0.4571485214
O48        O    0.0838958503    0.5428445927    0.5428442391
O49        O    0.0838970634    0.5428463624    0.4571520560
O50        O    0.0838982913    0.4571503549    0.5428469523
Cu51      Cu    0.1596868200    0.5000019959    0.4999977438
Cu52      Cu    0.0775598327    0.4999955712    0.5000014461
C53        C    0.1186232061    0.4445156946    0.5554830273
C54        C    0.1186234466    0.5554818725    0.4445161626
C55        C    0.1186236193    0.5554803326    0.5554806399
C56        C    0.1186230333    0.4445172345    0.4445185500
O57        O    0.9771574372    0.2809648001    0.9571516338
O58        O    0.8914605724    0.2809664291    1.0428459792
O59        O    0.8914569817    0.2809678159    0.9571537945
O60        O    0.9771610262    0.2809634060    1.0428500647
O61        O    0.9771622498    0.3504147262    1.0428505657
O62        O    0.8914644505    0.3504190225    0.9571542970
O63        O    0.8914617960    0.3504177494    1.0428464801
O64        O    0.9771586608    0.3504161203    0.9571521348
Cu65      Cu    0.9343061832    0.2746277679    1.0000007193
Cu66      Cu    0.9343130500    0.3567547816    0.9999973946
C67        C    0.9897932607    0.3156911352    0.9445159813
C68        C    0.8788259725    0.3156914142    1.0554821327
C69        C    0.8788286582    0.3156913192    0.9445176553
C70        C    0.9897905749    0.3156912302    1.0554804586
O71        O    0.3914639410    0.7809632396    0.5428474521
O72        O    0.4771606362    0.7809643705    0.4571529372
O73        O    0.4771643965    0.7809660794    0.5428451218
O74        O    0.3914601823    0.7809615233    0.4571490212
O75        O    0.3914592564    0.8504128436    0.4571481817
O76        O    0.4771572253    0.8504172861    0.5428442808
O77        O    0.4771597103    0.8504156908    0.4571520977
O78        O    0.3914630150    0.8504145598    0.5428466126
Cu79      Cu    0.4343150831    0.7746259583    0.4999983127
Cu80      Cu    0.4343085682    0.8567529720    0.5000012371
C81        C    0.3788282913    0.8156896482    0.5554829604
C82        C    0.4897953599    0.8156892822    0.4445165894
C83        C    0.4897928938    0.8156896043    0.5554810667
C84        C    0.3788307575    0.8156893260    0.4445184831
O85        O    0.8914644865    0.6495789242    1.0428451522
O86        O    0.9771607397    0.6495806205    0.9571501952
O87        O    0.9771649421    0.6495818318    1.0428423798
O88        O    0.8914602858    0.6495777056    0.9571467214
O89        O    0.8914593049    0.7190290258    0.9571462851
O90        O    0.9771577160    0.7190330385    1.0428419421
O91        O    0.9771597588    0.7190319407    0.9571497589
O92        O    0.8914635057    0.7190302444    1.0428447160
Cu93      Cu    0.9343154126    0.6432419256    0.9999957549
Cu94      Cu    0.9343088328    0.7253689393    0.9999991562
C95        C    0.8788288746    0.6843052495    1.0554809273
C96        C    0.9897953707    0.6843056155    0.9445139838
C97        C    0.9897934770    0.6843052933    1.0554784612
C98        C    0.8788307683    0.6843055716    0.9445164500
O99        O    0.4771570070    0.1495865819    0.4571505828
O100       O    0.3914609235    0.1495877801    0.5428457094
O101       O    0.3914565515    0.1495893135    0.4571535248
O102       O    0.4771613774    0.1495850411    0.5428490136
O103       O    0.4771623706    0.2190363613    0.5428496335
O104       O    0.3914637900    0.2190405202    0.4571541461
O105       O    0.3914619167    0.2190391003    0.5428463293
O106       O    0.4771580003    0.2190379021    0.4571512026
Cu107     Cu    0.4343061647    0.1432493342    0.5000000481
Cu108     Cu    0.4343127591    0.2253763479    0.4999968640
C109       C    0.4897926001    0.1843129806    0.4445148745
C110       C    0.3788263236    0.1843127016    0.5554820376
C111       C    0.3788279977    0.1843127966    0.4445175602
C112       C    0.4897909261    0.1843128856    0.5554793518
O113       O    0.8914637957    0.9571511135    0.2809614879
O114       O    0.9771599542    1.0428463677    0.2809629916
O115       O    0.9771642513    0.9571536946    0.2809644343
O116       O    0.8914595003    1.0428500329    0.2809600378
O117       O    0.8914581011    1.0428505793    0.3504109621
O118       O    0.9771566068    0.9571542424    0.3504152451
O119       O    0.9771585549    1.0428469141    0.3504139159
O120       O    0.8914623965    0.9571516599    0.3504124122
Cu121     Cu    0.9343147126    1.0000006493    0.2746244291
Cu122     Cu    0.9343076381    0.9999973783    0.3567509747
C123       C    0.8788279886    0.9445153497    0.3156876436
C124       C    0.9897943621    1.0554826779    0.3156877602
C125       C    0.9897925910    0.9445175680    0.3156877378
C126       C    0.8788297596    1.0554804595    0.3156876660
O127       O    0.3914611113    0.4571517150    0.8504182219
O128       O    0.4771562694    0.5428479695    0.8504167124
O129       O    0.3914636238    0.5428521980    0.8504153182
O130       O    0.4771600032    0.4571474881    0.8504196234
O131       O    0.4771608582    0.4571464716    0.7809686990
O132       O    0.3914644803    0.5428449363    0.7809645075
O133       O    0.4771571245    0.5428469530    0.7809657881
O134       O    0.3914619663    0.4571506985    0.7809672975
Cu135     Cu    0.4343105709    0.5000026449    0.8567552777
Cu136     Cu    0.4343076649    0.4999960230    0.7746287322
C137       C    0.3788255160    0.4445160851    0.8156920670
C138       C    0.4897927198    0.5554825829    0.8156919429
C139       C    0.3788276455    0.5554807231    0.8156920283
C140       C    0.4897905902    0.4445179449    0.8156919816
O141       O    0.9771594697    0.9571522053    0.7190372433
O142       O    0.8914631300    1.0428470870    0.7190357937
O143       O    0.8914590142    0.9571544139    0.7190343037
O144       O    0.9771635839    1.0428511247    0.7190387407
O145       O    0.9771649776    1.0428517868    0.6495878164
O146       O    0.8914666531    0.9571550775    0.6495834929
O147       O    0.8914645237    1.0428477491    0.6495848694
O148       O    0.9771608634    0.9571528674    0.6495863190
Cu149     Cu    0.9343084627    1.0000015443    0.7253743291
Cu150     Cu    0.9343155307    0.9999984101    0.6432477836
C151       C    0.9897953008    0.9445165543    0.6843110797
C152       C    0.8788286926    1.0554834002    0.6843110330
C153       C    0.8788306984    0.9445182903    0.6843109943
C154       C    0.9897932950    1.0554816642    0.6843111184
O155       O    0.3914624463    0.5428456486    0.1495805671
O156       O    0.4771572319    0.4571492128    0.1495819254
O157       O    0.3914645862    0.4571451656    0.1495834582
O158       O    0.4771613382    0.5428496942    0.1495790269
O159       O    0.4771616870    0.5428507005    0.2190299513
O160       O    0.3914649365    0.4571524171    0.2190342689
O161       O    0.4771575807    0.4571502191    0.2190328497
O162       O    0.3914627951    0.5428466549    0.2190314914
Cu163     Cu    0.4343117658    0.4999946289    0.1432434356
Cu164     Cu    0.4343082611    0.5000012388    0.2253699812
C165       C    0.3788266527    0.5554813001    0.1843067443
C166       C    0.4897933742    0.4445145676    0.1843066725
C167       C    0.3788283000    0.4445166621    0.1843067667
C168       C    0.4897917270    0.5554792056    0.1843066501
O169       O    0.2447319574    0.2131378276    0.3035212112
O170       O    0.1752766341    0.2478641800    0.3382561860
C171       C    0.1680913825    0.2870626162    0.3403463465
O172       O    0.1474506064    0.3035209096    0.3104240663
O173       O    0.1821766474    0.3382509861    0.2409684141
C174       C    0.2213728523    0.3403426051    0.2337791523
O175       O    0.2378339792    0.3104234404    0.2131359150
O176       O    0.2725647542    0.2409655416    0.2478672065
C177       C    0.2746510789    0.2337835554    0.2870648816
O178       O    0.1933444126    0.1617449083    0.2521364391
O179       O    0.1238875966    0.1964727306    0.2868607998
C180       C    0.0939664473    0.2129345647    0.2662170353
O181       O    0.0960570392    0.2521293661    0.2590329800
O182       O    0.1307876100    0.2868595367    0.1895730279
C183       C    0.1472468244    0.2662181340    0.1596578423
O184       O    0.1864438492    0.2590355714    0.1617485300
O185       O    0.2211711870    0.1895739981    0.1964761202
C186       C    0.2005261437    0.1596555039    0.2129355704
Cr187     Cr    0.1843120441    0.2066952933    0.2933020516
Cr188     Cr    0.1410024733    0.2933002049    0.2499994346
Cr189     Cr    0.2276124211    0.2499986292    0.2066983838
O190       O    0.1843128611    0.2499964218    0.2499979611
O191       O    0.6238900980    0.7868597315    0.3035213923
O192       O    0.6933453830    0.7521330727    0.3382555575
C193       C    0.7005304962    0.7129346070    0.3403456209
O194       O    0.7211711354    0.6964762826    0.3104230979
O195       O    0.6864447891    0.6617464369    0.2409678309
C196       C    0.6472485582    0.6596549722    0.2337790179
O197       O    0.6307874881    0.6895742281    0.2131359806
O198       O    0.5960570566    0.7590322024    0.2478676964
C199       C    0.5939708586    0.7662141378    0.2870653981
O200       O    0.6752776996    0.8382525389    0.2521360501
O201       O    0.7447344772    0.8035244103    0.2868596013
C202       C    0.7746555133    0.7870624973    0.2662154874
O203       O    0.7725647593    0.7478677143    0.2590314414
O204       O    0.7378338834    0.7131377745    0.1895718746
C205       C    0.7213746680    0.7337792820    0.1596568855
O206       O    0.6821776749    0.7409619853    0.1617480254
O207       O    0.6474506806    0.8104236341    0.1964760399
C208       C    0.6680958758    0.8403420281    0.2129352646
Cr209     Cr    0.6843100087    0.7933020595    0.2933015422
Cr210     Cr    0.7276191511    0.7066970537    0.2499983961
Cr211     Cr    0.6410092512    0.7499990114    0.2066983548
O212       O    0.6843089221    0.7500009956    0.2499974355
O213       O    0.6238886366    0.2131380522    0.6964764396
O214       O    0.6933441502    0.2478646850    0.6617419319
C215       C    0.7005293611    0.2870631490    0.6596518088
O216       O    0.7211699084    0.3035214933    0.6895742259
O217       O    0.6864433409    0.3382513876    0.7590296285
C218       C    0.6472470836    0.3403428584    0.7662186200
O219       O    0.6307858566    0.3104236172    0.7868617533
O220       O    0.5960554179    0.2409656202    0.7521302443
C221       C    0.5939693729    0.2337836581    0.7129325571
O222       O    0.6752758999    0.1617452782    0.7478615811
O223       O    0.7447329061    0.1964733808    0.7131376874
C224       C    0.7746538904    0.2129353071    0.7337816527
O225       O    0.7725631941    0.2521300950    0.7409656815
O226       O    0.7378320968    0.2868600834    0.8104253840
C227       C    0.7213727055    0.2662185968    0.8403404627
O228       O    0.6821757052    0.2590358934    0.8382495076
O229       O    0.6474487036    0.1895742220    0.8035217000
C230       C    0.6680939021    0.1596558161    0.7870624010
Cr231     Cr    0.6843084886    0.2066957292    0.7066960168
Cr232     Cr    0.7276176401    0.2933007632    0.7499989050
Cr233     Cr    0.6410074551    0.2499988379    0.7932993734
O234       O    0.6843073130    0.2499968228    0.7500000940
O235       O    0.2447348151    0.7868614663    0.6964768248
O236       O    0.1752796398    0.7521350060    0.6617421258
C237       C    0.1680944015    0.7129365562    0.6596519371
O238       O    0.1474535034    0.6964781667    0.6895742894
O239       O    0.1821792610    0.6617480611    0.7590297208
C240       C    0.2213754363    0.6596565228    0.7662187923
O241       O    0.2378364742    0.6895756933    0.7868619989
O242       O    0.2725673848    0.7590337290    0.7521306525
C243       C    0.2746538710    0.7662157826    0.7129329789
O244       O    0.1933470514    0.8382541829    0.7478619238
O245       O    0.1238903834    0.8035262528    0.7131378388
C246       C    0.0939691505    0.7870643154    0.7337817197
O247       O    0.0960597173    0.7478695075    0.7409657026
O248       O    0.1307900046    0.7131393078    0.8104254338
C249       C    0.1472490927    0.7337807015    0.8403405738
O250       O    0.1864461253    0.7409633596    0.8382497107
O251       O    0.2211735987    0.8104250699    0.8035220657
C252       C    0.2005286199    0.8403435417    0.7870627615
Cr253     Cr    0.1843148588    0.7933038423    0.7066962827
Cr254     Cr    0.1410051190    0.7066987600    0.7499989681
Cr255     Cr    0.2276148823    0.7500004702    0.7932996751
O256       O    0.1843155016    0.7500026448    0.7500003042
O257       O    0.1474494690    0.3104231292    0.6964798208
O258       O    0.1821760053    0.2409678288    0.6617451246
C259       C    0.2213744422    0.2337825966    0.6596549779
O260       O    0.2378326035    0.2131417987    0.6895773383
O261       O    0.2725623322    0.2478678138    0.7590328293
C262       C    0.2746538975    0.2870640266    0.7662219247
O263       O    0.2447346392    0.3035251272    0.7868651051
O264       O    0.1752769044    0.3382559052    0.7521336963
C265       C    0.1680950993    0.3403422579    0.7129360154
O266       O    0.0960563566    0.2590355010    0.7478648314
O267       O    0.1307843627    0.1895787079    0.7131407493
C268       C    0.1472461121    0.1596575411    0.7337846332
O269       O    0.1864408668    0.1617481481    0.7409686632
O270       O    0.2211706896    0.1964786929    0.8104284540
C271       C    0.2005291478    0.2129378785    0.8403435788
O272       O    0.1933465770    0.2521349138    0.8382527287
O273       O    0.1238851677    0.2868622546    0.8035250211
C274       C    0.0939667692    0.2662172023    0.7870656706
Cr275     Cr    0.1410069208    0.2500031851    0.7066992381
Cr276     Cr    0.2276116279    0.2066936106    0.7500020015
Cr277     Cr    0.1843098230    0.2933035298    0.7933027049
O278       O    0.1843078366    0.2500039901    0.7500033104
O279       O    0.6307905368    0.7868615167    0.6895785322
O280       O    0.5960556856    0.7521346148    0.7590334496
C281       C    0.5939655220    0.7129361232    0.7662184476
O282       O    0.6238880513    0.6964777068    0.7868588744
O283       O    0.6933438868    0.6617479571    0.7521324870
C284       C    0.7005329974    0.6596566358    0.7129364464
O285       O    0.7211762868    0.6895759432    0.6964754804
O286       O    0.6864446883    0.7590340646    0.6617454579
C287       C    0.6472467971    0.7662160271    0.6596593740
O288       O    0.6821758669    0.8382541065    0.7409658485
O289       O    0.6474516299    0.8035257347    0.8104222585
C290       C    0.6680956382    0.7870636994    0.8403430531
O291       O    0.6752796957    0.7478689208    0.8382522130
O292       O    0.7447398311    0.7131390770    0.8035212958
C293       C    0.7746551124    0.7337806316    0.7870621445
O294       O    0.7725642299    0.7409634827    0.7478653819
O295       O    0.7378363328    0.8104252786    0.7131387965
C296       C    0.7213769133    0.8403436033    0.7337839796
Cr297     Cr    0.6410100461    0.7933036134    0.7499981083
Cr298     Cr    0.6843130459    0.7066984241    0.7933067409
Cr299     Cr    0.7276139425    0.7500006851    0.7066972994
O300       O    0.6843143404    0.7500025282    0.7499968347
O301       O    0.1474503790    0.6895752668    0.3035191847
O302       O    0.1821766133    0.7590307651    0.3382536326
C303       C    0.2213750268    0.7662161566    0.3403436220
O304       O    0.2378333081    0.7868569683    0.3104211652
O305       O    0.2725634593    0.7521309713    0.2409656058
C306       C    0.2746551303    0.7129347544    0.2337765703
O307       O    0.2447360082    0.6964734992    0.2131335289
O308       O    0.1752781529    0.6617425052    0.2478652544
C309       C    0.1680961472    0.6596561917    0.2870629655
O310       O    0.0960574449    0.7409626020    0.2521342753
O311       O    0.1307851491    0.8104195930    0.2868581091
C312       C    0.1472469540    0.8403407896    0.2662141127
O313       O    0.1864417497    0.8382503259    0.2590299415
O314       O    0.2211719951    0.8035197992    0.1895700823
C315       C    0.2005306379    0.7870604800    0.1596550622
O316       O    0.1933481244    0.7478634197    0.1617460065
O317       O    0.1238865946    0.7131358628    0.1964740307
C318       C    0.0939680744    0.7337808247    0.2129334562
Cr319     Cr    0.1410077788    0.7499951675    0.2932996869
Cr320     Cr    0.2276126362    0.7933050114    0.2499965286
Cr321     Cr    0.1843112078    0.7066948454    0.2066961348
O322       O    0.1843089203    0.7499944599    0.2499954545
O323       O    0.6307878842    0.2131399685    0.3104199887
O324       O    0.5960533132    0.2478663012    0.2409649948
C325       C    0.5939632704    0.2870647334    0.2337796816
O326       O    0.6238858987    0.3035229667    0.2131389326
O327       O    0.6933417285    0.3382529829    0.2478646013
C328       C    0.7005307369    0.3403446297    0.2870605800
O329       O    0.7211739040    0.3104254530    0.3035216692
O330       O    0.6864420311    0.2409676342    0.3382524871
C331       C    0.6472441157    0.2337857028    0.3403388727
O332       O    0.6821732229    0.1617469308    0.2590327859
O333       O    0.6474492660    0.1964747333    0.1895762992
C334       C    0.6680933989    0.2129365111    0.1596552396
O335       O    0.6752775517    0.2521313047    0.1617457074
O336       O    0.7447376813    0.2868614150    0.1964759058
C337       C    0.7746528642    0.2662199879    0.2129350454
O338       O    0.7725618556    0.2590374655    0.2521318811
O339       O    0.7378336841    0.1895759723    0.2868592619
C340       C    0.7213742442    0.1596574805    0.2662144306
Cr341     Cr    0.6410075427    0.2066973626    0.2500004036
Cr342     Cr    0.6843108847    0.2933021744    0.2066907792
Cr343     Cr    0.7276114319    0.2500006233    0.2933003163
O344       O    0.6843119487    0.2499984328    0.2500010479
C815       C    0.3045911325    0.5922917744    0.2009380285
C816       C    0.3524127247    0.5954054954    0.1968504068
C817       C    0.3745624838    0.6373217482    0.2049540356
C818       C    0.3488906506    0.6761242801    0.2171452861
C819       C    0.3010690583    0.6730105591    0.2212329078
C820       C    0.2789192993    0.6310943062    0.2131292790
H821       H    0.2881945576    0.5612628600    0.1949392384
H822       H    0.4099605574    0.6396278400    0.2019286490
H823       H    0.3652872255    0.7071531945    0.2231440762
H824       H    0.2435212257    0.6287882145    0.2161546656
C805       C    0.5642545692    0.4060751283    0.1952721718
C806       C    0.5162065227    0.4045918451    0.1968509678
C807       C    0.4938302758    0.3643063672    0.2106219731
C808       C    0.5195020754    0.3255041726    0.2228141823
C809       C    0.5675501218    0.3269874559    0.2212353863
C810       C    0.5899263687    0.3672729337    0.2074643810
H811       H    0.5808188039    0.4358968457    0.1850780510
H812       H    0.4582645745    0.3632071713    0.2117910281
H813       H    0.5029378407    0.2956824552    0.2330083031
H814       H    0.6254920701    0.3683721296    0.2062953260
C795       C    0.3406795807    0.3700422758    0.1961820187
C796       C    0.3389029336    0.4181016510    0.1968512874
C797       C    0.2983239289    0.4404890088    0.2097122282
C798       C    0.2595215715    0.4148169914    0.2219039003
C799       C    0.2612982187    0.3667576162    0.2212346316
C800       C    0.3018772233    0.3443702584    0.2083736908
H801       H    0.3707185842    0.3534698161    0.1866615820
H802       H    0.2970075768    0.4760630961    0.2102080255
H803       H    0.2294825681    0.4313894511    0.2314243370
H804       H    0.3031935754    0.3087961712    0.2078778935
C785       C    0.5848760532    0.6418891502    0.1795855640
C786       C    0.6073223621    0.6332392108    0.2212343512
C787       C    0.5909664515    0.5989171495    0.2506916212
C788       C    0.5521642320    0.5732450276    0.2385001039
C789       C    0.5297179232    0.5818949671    0.1968513167
C790       C    0.5460738338    0.6162170283    0.1673940468
H791       H    0.5969836753    0.6672963904    0.1577795330
H792       H    0.6075806119    0.5925134089    0.2815208376
H793       H    0.5400566099    0.5478377875    0.2603061349
H794       H    0.5294596733    0.6226207690    0.1365648303
C775       C    0.7968296167    0.9401806381    0.7043040693
C776       C    0.8389059232    0.9181032317    0.6968556138
C777       C    0.8421801123    0.8703535404    0.7015990314
C778       C    0.8033779950    0.8446812555    0.7137909046
C779       C    0.7613016885    0.8667586619    0.7212393601
C780       C    0.7580274994    0.9145083533    0.7164959425
H781       H    0.7944058663    0.9755278123    0.7007927082
H782       H    0.8733249485    0.8540104114    0.6960858611
H783       H    0.8058017454    0.8093340814    0.7173022656
H784       H    0.7268826632    0.9308514822    0.7220091127
C765       C    0.8183133924    1.1119575151    0.6672485400
C766       C    0.8524138404    1.0954073429    0.6968549407
C767       C    0.8608417395    1.1176591815    0.7386527436
C768       C    0.8351691906    1.1564611921    0.7508441457
C769       C    0.8010687425    1.1730113643    0.7212377450
C770       C    0.7926408435    1.1507595258    0.6794399421
H771       H    0.8120745581    1.0954853749    0.6363073092
H772       H    0.8860830367    1.1054095071    0.7605686190
H773       H    0.8414080249    1.1729333323    0.7817853765
H774       H    0.7673995463    1.1630092002    0.6575240667
C755       C    1.0288765097    1.1095338241    0.7362105855
C756       C    1.0297178990    1.0818970736    0.6968558954
C757       C    1.0693610929    1.0799328522    0.6696931858
C758       C    1.1081628975    1.1056053812    0.6818851661
C759       C    1.1073215081    1.1332421316    0.7212398561
C760       C    1.0676783142    1.1352063531    0.7484025658
H761       H    0.9995302493    1.1109878581    0.7563180459
H762       H    1.0699851409    1.0594761656    0.6405621244
H763       H    1.1375091579    1.1041513471    0.6617777057
H764       H    1.0670542662    1.1556630397    0.7775336271
C745       C    0.9990833597    0.8605843447    0.6877298934
C746       C    1.0162099055    0.9045925362    0.6968549898
C747       C    1.0590087714    0.9097986263    0.7181714961
C748       C    1.0846810915    0.8709965249    0.7303629060
C749       C    1.0675545457    0.8269883335    0.7212378096
C750       C    1.0247556798    0.8217822434    0.6999213033
H751       H    0.9674010824    0.8567304858    0.6719501419
H752       H    1.0716871342    0.9423734980    0.7249265346
H753       H    1.1163633689    0.8748503838    0.7461426574
H754       H    1.0120773170    0.7892073717    0.6931662648
C735       C    0.4942869734    0.6377634722    0.7969225942
C736       C    0.5162071631    0.5954070884    0.8031472594
C737       C    0.5637993106    0.5918529692    0.7971798604
C738       C    0.5894712684    0.6306552339    0.7849877963
C739       C    0.5675510787    0.6730116177    0.7787631311
C740       C    0.5199589312    0.6765657369    0.7847305301
H741       H    0.4590564227    0.6403944435    0.8013400194
H742       H    0.5800260632    0.5605008120    0.8017871466
H743       H    0.6247018191    0.6280242626    0.7805703711
H744       H    0.5037321786    0.7079178941    0.7801232439
C725       C    0.5340815160    0.4008672063    0.7584572703
C726       C    0.5297165911    0.4181024284    0.8031470974
C727       C    0.5641539121    0.4096656237    0.8356451279
C728       C    0.6029561579    0.3839935970    0.8234533313
C729       C    0.6073210828    0.3667583748    0.7787635042
C730       C    0.5728837618    0.3751951795    0.7462654737
H731       H    0.5085889537    0.4071126331    0.7344002867
H732       H    0.5609241000    0.4224228069    0.8687254075
H733       H    0.6284487202    0.3777481701    0.8475103149
H734       H    0.5761135739    0.3624379963    0.7131851941
C715       C    0.3491173969    0.3248905865    0.7791365009
C716       C    0.3010677253    0.3269876797    0.7787656083
C717       C    0.2786900351    0.3678871490    0.7905861033
C718       C    0.3043620166    0.4066895251    0.8027774909
C719       C    0.3524116882    0.4045924320    0.8031483834
C720       C    0.3747893783    0.3636929627    0.7913278884
H721       H    0.3656827000    0.2946143560    0.7703862643
H722       H    0.2431231308    0.3694407042    0.7903119440
H723       H    0.2877967135    0.4369657556    0.8115277275
H724       H    0.4103562826    0.3621394074    0.7916020477
C705       C    0.3304424409    0.5922187988    0.7569398209
C706       C    0.3389032840    0.5818960545    0.8031473497
C707       C    0.3085623840    0.5972458787    0.8371629391
C708       C    0.2697606410    0.6229184471    0.8249709997
C709       C    0.2612997979    0.6332411913    0.7787634709
C710       C    0.2916406978    0.6178913672    0.7447478815
H711       H    0.3529025876    0.5808559419    0.7317594495
H712       H    0.3148241098    0.5896055059    0.8713666642
H713       H    0.2473004942    0.6342813039    0.8501513711
H714       H    0.2853789720    0.6255317400    0.7105441564
C695       C    0.8124101480    1.1030967509    0.3372299113
C696       C    0.8389038999    1.0818965372    0.3031427802
C697       C    0.8265957538    1.0863687564    0.2568639172
C698       C    0.7877938558    1.1120411892    0.2446721853
C699       C    0.7613001039    1.1332414028    0.2787593164
C700       C    0.7736082500    1.1287691837    0.3250381794
H701       H    0.8215213730    1.0997861471    0.3714882905
H702       H    0.8462059452    1.0706765751    0.2316312793
H703       H    0.7786826308    1.1153517929    0.2104138062
H704       H    0.7539980586    1.1444613649    0.3502708173
C685       C    1.0716261937    0.9402538650    0.2950010114
C686       C    1.0297179028    0.9181017211    0.3031428335
C687       C    1.0266114816    0.8702770349    0.2990927474
C688       C    1.0654133513    0.8446044927    0.2869008391
C689       C    1.1073216422    0.8667566366    0.2787590170
C690       C    1.1104280634    0.9145813227    0.2828091031
H691       H    1.0739257522    0.9756565547    0.2979991271
H692       H    0.9955910153    0.8538785832    0.3051191670
H693       H    1.0631137927    0.8092018029    0.2839027234
H694       H    1.1414485297    0.9309797744    0.2767826834
C675       C    0.9972611927    1.1285655591    0.2739076125
C676       C    1.0162083054    1.0954062832    0.3031439303
C677       C    1.0608275174    1.1010493455    0.3201887156
C678       C    1.0864996166    1.1398516835    0.3079971831
C679       C    1.0675525039    1.1730109594    0.2787608653
C680       C    1.0229332919    1.1673678972    0.2617160800
H681       H    0.9642313864    1.1243882273    0.2612900441
H682       H    1.0748535149    1.0765051459    0.3418298735
H683       H    1.1195294229    1.1440290153    0.3206147514
H684       H    1.0089072944    1.1919120968    0.2400749220
C665       C    0.7893409007    0.8522322433    0.3179820666
C666       C    0.8010697699    0.8269866714    0.2787597821
C667       C    0.8384706202    0.8405433516    0.2517292810
C668       C    0.8641426012    0.8793456036    0.2639210644
C669       C    0.8524137320    0.9045911755    0.3031433489
C670       C    0.8150128818    0.8910344954    0.3301738500
H671       H    0.7616545570    0.8421967788    0.3379916583
H672       H    0.8471534712    0.8218570980    0.2226962301
H673       H    0.8918289450    0.8893810681    0.2439114727
H674       H    0.8063300308    0.9097207489    0.3592069009
C655       C    0.5716871863    0.1747248210    0.4259682944
C656       C    0.5297165816    0.1968574648    0.4180996269
C657       C    0.5265477532    0.2311819855    0.3845582061
C658       C    0.5653495294    0.2433738624    0.3588854528
C659       C    0.6073201341    0.2212412186    0.3667541203
C660       C    0.6104889626    0.1869166979    0.4002955411
H661       H    0.5740329425    0.1493157602    0.4507976579
H662       H    0.4954811605    0.2475655760    0.3787327848
H663       H    0.5630037733    0.2687829232    0.3340560893
H664       H    0.6415555553    0.1705331073    0.4061209624
C645       C    0.3320455013    0.1627091158    0.3775296203
C646       C    0.3524122375    0.1968569159    0.4045928604
C647       C    0.3471062745    0.2431959761    0.3928544611
C648       C    0.3214335753    0.2553872362    0.3540528215
C649       C    0.3010668392    0.2212394361    0.3269895814
C650       C    0.3063728022    0.1749003759    0.3387279807
H651       H    0.3359732921    0.1284061752    0.3862190847
H652       H    0.3621814922    0.2684735229    0.4128862038
H653       H    0.3175057845    0.2896901768    0.3453633571
H654       H    0.2912975844    0.1496228291    0.3186962380
C635       C    0.5641244486    0.1998828424    0.5925594998
C636       C    0.5162072355    0.1968570852    0.5954044296
C637       C    0.4939629363    0.2060225146    0.6370508842
C638       C    0.5196358503    0.2182137012    0.6758524091
C639       C    0.5675530635    0.2212394584    0.6730074793
C640       C    0.5897973626    0.2120740290    0.6313610247
H641       H    0.5805910077    0.1930980440    0.5617303061
H642       H    0.4584940815    0.2037831499    0.6391580092
H643       H    0.5031692912    0.2249984996    0.7066816028
H644       H    0.6252662175    0.2143133937    0.6292538997
C625       C    0.2719531622    0.1748507966    0.6263186047
C626       C    0.2612981314    0.2212389503    0.6332407614
C627       C    0.2894453521    0.2554358029    0.6144906644
C628       C    0.3282476036    0.2432445017    0.5888184108
C629       C    0.3389026345    0.1968563479    0.5818962541
C630       C    0.3107554138    0.1626594954    0.6006463511
H631       H    0.2511169079    0.1495362434    0.6401985466
H632       H    0.2815594270    0.2897732316    0.6196138268
H633       H    0.3490838579    0.2685590548    0.5749384689
H634       H    0.3186413389    0.1283220666    0.5955231887
C615       C    1.0593221492    0.7175245470    1.0901934377
C616       C    1.0162088887    0.6968507368    1.0954041112
C617       C    0.9987675152    0.6883692489    1.1394166321
C618       C    1.0244394022    0.7005615710    1.1782184797
C619       C    1.0675526627    0.7212353811    1.1730078062
C620       C    1.0849940362    0.7297168691    1.1289952853
H621       H    1.0722332958    0.7238030510    1.0576127404
H622       H    0.9668546810    0.6730662997    1.1432749470
H623       H    1.0115282556    0.6942830669    1.2107991770
H624       H    1.1169068704    0.7450198183    1.1251369704
C605       C    0.8747065677    0.7125139072    0.8649543990
C606       C    0.8524151009    0.6968508896    0.9045909940
C607       C    0.8044514736    0.6933800840    0.9054258923
C608       C    0.7787793130    0.7055722960    0.8666241955
C609       C    0.8010707798    0.7212353136    0.8269876005
C610       C    0.8490344071    0.7247061192    0.8261527022
H611       H    0.9102121100    0.7150832048    0.8643363574
H612       H    0.7879498912    0.6817862642    0.9347647855
H613       H    0.7432737707    0.7030029984    0.8672422371
H614       H    0.8655359895    0.7362999390    0.7968138090
C595       C    0.8175435776    0.7393051783    1.0745055107
C596       C    0.8389036941    0.6968502282    1.0818965057
C597       C    0.8214618878    0.6665873157    1.1149599014
C598       C    0.7826599650    0.6787793532    1.1406323021
C599       C    0.7612998485    0.7212343033    1.1332413072
C600       C    0.7787416548    0.7514972158    1.1001779115
H601       H    0.8304550446    0.7617075941    1.0500300100
H602       H    0.8372720182    0.6351613548    1.1204317359
H603       H    0.7697484980    0.6563769374    1.1651078028
H604       H    0.7629315244    0.7829231767    1.0947060769
C585       C    1.0736964297    0.6906301666    0.9365568573
C586       C    1.0297201097    0.6968507613    0.9180992624
C587       C    1.0245459117    0.7152637531    0.8739696840
C588       C    1.0633480337    0.7274561504    0.8482977004
C589       C    1.1073243537    0.7212355557    0.8667552953
C590       C    1.1124985517    0.7028225639    0.9108848737
H591       H    1.0775266802    0.6769997701    0.9692242075
H592       H    0.9919946321    0.7198687979    0.8603060413
H593       H    1.0595177832    0.7410865470    0.8156303502
H594       H    1.1450498313    0.6982175191    0.9245485163
C575       C    0.2986856774    0.8293128523    0.4214092627
C576       C    0.3389049749    0.8031444984    0.4181030402
C577       C    0.3403221896    0.7647843874    0.3891248301
C578       C    0.3015201068    0.7525926303    0.3634528424
C579       C    0.2613008094    0.7787609843    0.3667590648
C580       C    0.2598835947    0.8171210953    0.3957372750
H581       H    0.2976365705    0.8577092981    0.4428606650
H582       H    0.3700924155    0.7454134508    0.3866766589
H583       H    0.3025692138    0.7241961845    0.3420014400
H584       H    0.2301133688    0.8364920318    0.3981854462
C565       C    0.5245837715    0.7856581300    0.6264075311
C566       C    0.5297183180    0.8031446403    0.5818974529
C567       C    0.5736543920    0.8084393259    0.5630601422
C568       C    0.6124559194    0.7962475014    0.5887329097
C569       C    0.6073213729    0.7787609912    0.6332429879
C570       C    0.5633852989    0.7734663055    0.6520802986
H571       H    0.4920596648    0.7817386874    0.6403520338
H572       H    0.5774563555    0.8213829462    0.5301133444
H573       H    0.6449800261    0.8001669441    0.5747884070
H574       H    0.5595833354    0.7605226852    0.6850270964
C555       C    0.5424416266    0.8363341060    0.3817087926
C556       C    0.5162105561    0.8031441476    0.4045925750
C557       C    0.5156520388    0.7577617516    0.3886747762
C558       C    0.5413245919    0.7455693140    0.3498731949
C559       C    0.5675556624    0.7787592724    0.3269894125
C560       C    0.5681141797    0.8241416684    0.3429072114
H561       H    0.5428550745    0.8699288667    0.3934920982
H562       H    0.4962358760    0.7331932262    0.4056127668
H563       H    0.5409111441    0.7119745533    0.3380898893
H564       H    0.5875303425    0.8487101938    0.3259692207
C545       C    0.3110628649    0.8257725454    0.6049673686
C546       C    0.3524136250    0.8031449597    0.5954062899
C547       C    0.3680918412    0.7683251297    0.6246468909
C548       C    0.3424192974    0.7561328854    0.6634485707
C549       C    0.3010685373    0.7787604711    0.6730096494
C550       C    0.2853903211    0.8135803011    0.6437690484
H551       H    0.2994569126    0.8515482636    0.5833217289
H552       H    0.3987000231    0.7515751693    0.6175707398
H553       H    0.3540252497    0.7303571671    0.6850942104
H554       H    0.2547821393    0.8303302615    0.6508451995
C535       C    0.8437443928    0.3003263261    1.1782113963
C536       C    0.8010673316    0.2787641213    1.1730107800
C537       C    0.7840623571    0.2693934963    1.1290079728
C538       C    0.8097344439    0.2815850759    1.0902057818
C539       C    0.8524115052    0.3031472807    1.0954063981
C540       C    0.8694164796    0.3125179058    1.1394092053
H541       H    0.8563324908    0.3072630226    1.2107849029
H542       H    0.7524724099    0.2534329324    1.1251571025
H543       H    0.7971463459    0.2746483794    1.0576322751
H544       H    0.9010064268    0.3284784697    1.1432600756
C525       C    1.0935735716    0.3247899035    1.1308215544
C526       C    1.1073205512    0.2787630559    1.1332415223
C527       C    1.0822656793    0.2449278345    1.1099891183
C528       C    1.0434638278    0.2571194607    1.0843167465
C529       C    1.0297168481    0.3031463083    1.0818967787
C530       C    1.0547717200    0.3369815297    1.1051491826
H531       H    1.1121206845    0.3498367558    1.1480343729
H532       H    1.0924403519    0.2108578547    1.1117796340
H533       H    1.0249167148    0.2320726085    1.0671039280
H534       H    1.0445970475    0.3710515095    1.1033586669
C515       C    0.8072556437    0.3368606748    0.9048678307
C516       C    0.8389025588    0.3031465230    0.9181014489
C517       C    0.8317475970    0.2572408063    0.9056626772
C518       C    0.7929457200    0.2450492412    0.8799902873
C519       C    0.7612988049    0.2787633929    0.8667566691
C520       C    0.7684537668    0.3246691097    0.8791954408
H521       H    0.8125521740    0.3708428287    0.9140757527
H522       H    0.8551723046    0.2322842582    0.9154577607
H523       H    0.7876491898    0.2110670873    0.8707823654
H524       H    0.7450290591    0.3496256578    0.8694003573
C505       C    1.0284206269    0.3366631994    0.8723315990
C506       C    1.0162076787    0.3031464378    0.9045926036
C507       C    1.0296670667    0.2574374072    0.8980518306
C508       C    1.0553394030    0.2452451381    0.8592500529
C509       C    1.0675523512    0.2787618998    0.8269890482
C510       C    1.0540929632    0.3244709304    0.8335298213
H511       H    1.0184571839    0.3704997546    0.8771734700
H512       H    1.0206275117    0.2326269728    0.9219311045
H513       H    1.0653028460    0.2114085830    0.8544081819
H514       H    1.0631325182    0.3492813648    0.8096505473
C495       C    0.0980234633    0.6082923249    0.3818316862
C496       C    0.1311679880    0.5818968254    0.4045915553
C497       C    0.1765043216    0.5811735326    0.3885494331
C498       C    0.1886961306    0.6068457393    0.3497474418
C499       C    0.1555516059    0.6332412388    0.3269875728
C500       C    0.1102152722    0.6339645316    0.3430296950
H501       H    0.0644628007    0.6088277495    0.3937070234
H502       H    0.2010392158    0.5616356547    0.4053956996
H503       H    0.2222567931    0.6063103147    0.3378721046
H504       H    0.0856803781    0.6535024094    0.3261834284
C485       C    0.1740602848    0.4025938796    0.3964379873
C486       C    0.1311663923    0.4045925184    0.4181043000
C487       C    0.1004633155    0.3677885641    0.4140987609
C488       C    0.1126541311    0.3289859711    0.3884269092
C489       C    0.1555480235    0.3269873324    0.3667605965
C490       C    0.1862511004    0.3637912867    0.3707661355
H491       H    0.1967885365    0.4298383653    0.3994031266
H492       H    0.0687124371    0.3692667846    0.4301359618
H493       H    0.0899258794    0.3017414855    0.3854617699
H494       H    0.2180019788    0.3623130661    0.3547289347
C475       C    0.1753139607    0.4221923004    0.6140528384
C476       C    0.1311675159    0.4181010220    0.5954074961
C477       C    0.0992127079    0.3883376978    0.6155641791
C478       C    0.1114043447    0.3626656520    0.6543662043
C479       C    0.1555507896    0.3667569304    0.6730115466
C480       C    0.1875055976    0.3965202546    0.6528548636
H481       H    0.1989688186    0.4442248910    0.5991316575
H482       H    0.0665346550    0.3853084062    0.6017636010
H483       H    0.0877494869    0.3406330614    0.6692873852
H484       H    0.2201836504    0.3995495462    0.6666554417
C465       C    0.1195016930    0.5980599607    0.6284797110
C466       C    0.1311676936    0.5954057688    0.5818948672
C467       C    0.1550250110    0.6315542525    0.5609814448
C468       C    0.1672163279    0.6703569281    0.5866528661
C469       C    0.1555503273    0.6730111200    0.6332377098
C470       C    0.1316930099    0.6368626363    0.6541511323
H471       H    0.1018410814    0.5713006935    0.6439610756
H472       H    0.1636608982    0.6295907730    0.5264988471
H473       H    0.1848769394    0.6971161952    0.5711715014
H474       H    0.1230571227    0.6388261158    0.6886337299
C455       C    0.6775510391    1.1063380045    1.0884043695
C456       C    0.6311670182    1.0954070949    1.0818972595
C457       C    0.5969742649    1.1232785955    1.1010619953
C458       C    0.6091655326    1.1620810058    1.1267338411
C459       C    0.6555495535    1.1730119154    1.1332409510
C460       C    0.6897423068    1.1451404148    1.1140762152
H461       H    0.7028625578    1.0857058547    1.0742174871
H462       H    0.5626398953    1.1151884571    1.0962460622
H463       H    0.5838540139    1.1827131556    1.1409207234
H464       H    0.7240766764    1.1532305532    1.1188921484
C445       C    0.6067951354    0.8634924227    0.9235909899
C446       C    0.6311679494    0.9045917036    0.9181022589
C447       C    0.6677324849    0.9068889705    0.8869412312
C448       C    0.6799242064    0.8680869565    0.8612689346
C449       C    0.6555513924    0.8269876756    0.8667576656
C450       C    0.6189868570    0.8246904087    0.8979186932
H451       H    0.5797278819    0.8617918485    0.9466582441
H452       H    0.6857743123    0.9373105849    0.8828775059
H453       H    0.7069914599    0.8697875308    0.8382016803
H454       H    0.6009450295    0.7942687943    0.9019824186
C435       C    0.6009255487    1.0849770906    0.8673204738
C436       C    0.6311674318    1.0818958911    0.9045926663
C437       C    0.6736004641    1.1044868675    0.9030626398
C438       C    0.6857916132    1.1301590433    0.8642604208
C439       C    0.6555497300    1.1332402428    0.8269882283
C440       C    0.6131166977    1.1106492664    0.8285182548
H441       H    0.5695140832    1.0682539003    0.8684530909
H442       H    0.6959867414    1.1022068895    0.9306513358
H443       H    0.7172030786    1.1468822336    0.8631278037
H444       H    0.5907304204    1.1129292444    0.8009295588
C425       C    0.6302353809    0.8700443117    1.0937130672
C426       C    0.6311681518    0.9181023021    1.0954064743
C427       C    0.6442925172    0.9404879350    1.1359017138
C428       C    0.6564841117    0.9148155776    1.1747035461
C429       C    0.6555513408    0.8667575872    1.1730101390
C430       C    0.6424269754    0.8443719543    1.1325148995
H431       H    0.6205199416    0.8534731289    1.0637360717
H432       H    0.6449833662    0.9760609971    1.1371564494
H433       H    0.6661995510    0.9313867604    1.2046805416
H434       H    0.6417361263    0.8087988922    1.1312601640
C415       C    0.7085264100    0.3799488359    0.4091132325
C416       C    0.7374606158    0.4181018775    0.4045890344
C417       C    0.7542024057    0.4305833293    0.3612627649
C418       C    0.7420099897    0.4049117394    0.3224606935
C419       C    0.7130757840    0.3667586978    0.3269848916
C420       C    0.6963339941    0.3542772460    0.3703111611
H421       H    0.6961331370    0.3707093197    0.4411859256
H422       H    0.7756199318    0.4588244701    0.3579125984
H423       H    0.7544032627    0.4141512556    0.2903880005
H424       H    0.6749164680    0.3260361052    0.3736613277
C405       C    0.6997484000    0.6116962191    0.5936513085
C406       C    0.7374613420    0.5818975755    0.5954060222
C407       C    0.7629825376    0.5777707772    0.6359629392
C408       C    0.7507907911    0.6034426225    0.6747651426
C409       C    0.7130778490    0.6332412662    0.6730104289
C410       C    0.6875566535    0.6373680645    0.6324535119
H411       H    0.6808560864    0.6147511218    0.5636286556
H412       H    0.7908983309    0.5557137965    0.6372630556
H413       H    0.7696831046    0.6003877199    0.7047877955
H414       H    0.6596408602    0.6594250452    0.6311533955
C395       C    0.7541205052    0.3991837471    0.6266863890
C396       C    0.7374601870    0.4045923764    0.5818928731
C397       C    0.7086072372    0.3711989877    0.5627713002
C398       C    0.6964146057    0.3323969698    0.5884432431
C399       C    0.7130749239    0.3269883405    0.6332367590
C400       C    0.7419278736    0.3603817292    0.6523583319
H401       H    0.7754791823    0.4239035283    0.6408413196
H402       H    0.6962744158    0.3752013791    0.5296146939
H403       H    0.6750559286    0.3076771886    0.5742883125
H404       H    0.7542606951    0.3563793378    0.6855149382
C385       C    0.6926799298    0.5999247187    0.4011449334
C386       C    0.7374608894    0.5954052038    0.4181018235
C387       C    0.7700492610    0.6296880804    0.4093874642
C388       C    0.7578566732    0.6684904719    0.3837162148
C389       C    0.7130757137    0.6730099868    0.3667593248
C390       C    0.6804873420    0.6387271102    0.3754736841
H391       H    0.6685560702    0.5745464854    0.4075958228
H392       H    0.8031969995    0.6263438365    0.4219386181
H393       H    0.7819805328    0.6938687052    0.3772653255
H394       H    0.6473396035    0.6420713541    0.3629225302
C375       C    0.2179411043   -0.1335486494    0.0600386179
C376       C    0.2374564024   -0.0954088087    0.0818973713
C377       C    0.2447806772   -0.0960716757    0.1294277887
C378       C    0.2325896539   -0.1348743834    0.1550994529
C379       C    0.2130743557   -0.1730142240    0.1332406995
C380       C    0.2057500809   -0.1723513571    0.0857102821
H381       H    0.2125192385   -0.1330579557    0.0248537634
H382       H    0.2592260634   -0.0678407222    0.1456090644
H383       H    0.2380115196   -0.1353650771    0.1902843074
H384       H    0.1913046948   -0.2005823106    0.0695290063
C365       C    0.2282497609    0.0878734401    0.1779854814
C366       C    0.2130709746    0.1332403870    0.1730105085
C367       C    0.2100841390    0.1529352615    0.1292335467
C368       C    0.2222760898    0.1272631891    0.0904315577
C369       C    0.2374548761    0.0818962423    0.0954065306
C370       C    0.2404417117    0.0622013677    0.1391834924
H371       H    0.2304607950    0.0732941174    0.2103918038
H372       H    0.1988487608    0.1865163376    0.1255497040
H373       H    0.2200650557    0.1418425119    0.0580252353
H374       H    0.2516770899    0.0286202916    0.1428673351
C355       C    0.1973544103    0.1197066031   -0.0711841928
C356       C    0.2374558424    0.0954084008   -0.0818977214
C357       C    0.2653659459    0.1099124933   -0.1182832435
C358       C    0.2531746173    0.1487147881   -0.1439552370
C359       C    0.2130731851    0.1730129903   -0.1332417084
C360       C    0.1851630816    0.1585088979   -0.0968561864
H361       H    0.1766936844    0.1089698074   -0.0442494557
H362       H    0.2950497667    0.0919275093   -0.1262145107
H363       H    0.2738353432    0.1594515838   -0.1708899741
H364       H    0.1554792608    0.1764938819   -0.0889249191
C345       C    0.2715621008   -0.0982204038   -0.1251327666
C346       C    0.2374558369   -0.0818967042   -0.0954072861
C347       C    0.1911581926   -0.0912450923   -0.1044838730
C348       C    0.1789668121   -0.1169171798   -0.1432859405
C349       C    0.2130730760   -0.1332408793   -0.1730114211
C350       C    0.2593707203   -0.1238924913   -0.1639348341
H351       H    0.3058343830   -0.0913001685   -0.1184137347
H352       H    0.1659113921   -0.0791626437   -0.0824814652
H353       H    0.1446945300   -0.1238374151   -0.1500049725
H354       H    0.2846175208   -0.1359749398   -0.1859372419
loop_
_geom_bond_atom_site_label_1
_geom_bond_atom_site_label_2
_geom_bond_distance
_geom_bond_site_symmetry_2
_ccdc_geom_bond_type
O308      Cr321 1.973       .   S
O308       C309 1.278       .   D
C517       H522 1.140       .   S
O302      Cr319 1.973       .   S
O302       C303 1.278       .   D
Cr297      O300 1.961       .   S
Cr299      O300 1.961       .   S
Cr298      O300 1.961       .   S
O301      Cr319 1.973       .   S
O301       C309 1.278       .   S
C306       O307 1.278       .   S
O307      Cr321 1.973       .   S
O304      Cr320 1.973       .   S
C303       O304 1.278       .   S
O305       C306 1.278       .   D
O305      Cr320 1.973       .   S
C510       H514 1.140       .   S
C507       H512 1.140       .   S
C508       H513 1.140       .   S
C505       H511 1.140       .   S
C470       H474 1.140       .   S
C465       C470 1.540       .   A
C469       C470 1.540       .   A
O29         C39 1.250       .   A
O29        Cu37 1.951       .   S
O316      Cr321 1.973       .   S
Cr321      O322 1.961       .   S
O317      Cr321 1.973       .   S
O314      Cr320 1.973       .   S
Cr320      O322 1.961       .   S
O313      Cr320 1.973       .   S
O22        Cu24 1.951       .   S
O22         C25 1.250       .   A
O20        Cu24 1.951       .   S
O20         C27 1.251       .   A
O21        Cu24 1.951       .   S
O21         C26 1.250       .   A
O248       C249 1.278       .   D
C249       O250 1.278       .   S
C249       C589 1.585   1_455   S
C566        C83 1.585       .   S
C566       C567 1.540       .   A
C565       C566 1.540       .   A
O48        Cu52 1.951       .   S
O49        Cu52 1.951       .   S
O50        Cu52 1.951       .   S
Cu51       Cu52 2.630       .   S
O47        Cu52 1.951       .   S
O43        Cu51 1.951       .   S
O44        Cu51 1.951       .   S
O45        Cu51 1.951       .   S
O46        Cu51 1.951       .   S
O239       C240 1.278       .   D
O239      Cr254 1.973       .   S
O236      Cr253 1.973       .   S
O236       C237 1.278       .   D
Cr233      O234 1.961       .   S
Cr232      O234 1.961       .   S
Cr231      O234 1.961       .   S
O235       C243 1.278       .   S
O235      Cr253 1.973       .   S
C246       O247 1.278       .   S
O245       C246 1.278       .   D
C246       C749 1.585   1_455   S
C448       H453 1.140       .   S
C447       C448 1.540       .   A
C448       C449 1.540       .   A
O144      Cu149 1.951       .   S
Cu149     Cu150 2.630       .   S
O141      Cu149 1.951       .   S
O142      Cu149 1.951       .   S
O143      Cu149 1.951       .   S
C809       C810 1.540       .   A
C808       C809 1.540       .   A
C809       C325 1.584       .   S
C808       H813 1.140       .   S
C807       C808 1.540       .   A
C376       C377 1.540       .   A
C376        C12 1.585       .   S
C375       C376 1.540       .   A
C805       C810 1.540       .   A
C805       C806 1.540       .   A
C805       H811 1.140       .   S
C806       C807 1.540       .   A
C807       H812 1.140       .   S
C806       C166 1.584       .   S
C795       C800 1.540       .   A
C800       H804 1.140       .   S
C799       C800 1.540       .   A
C457       H462 1.140       .   S
C759       C760 1.540       .   A
C760       H764 1.140       .   S
C755       C760 1.540       .   A
C455       H461 1.140       .   S
C460       H464 1.140       .   S
C488       C489 1.540       .   A
C488       H493 1.140       .   S
C487       C488 1.540       .   A
C736       C737 1.540       .   A
C737       H742 1.140       .   S
C737       C738 1.540       .   A
O59         C69 1.250       .   A
O59        Cu65 1.951       .   S
O58         C68 1.250       .   A
O58        Cu65 1.951       .   S
O50         C53 1.250       .   A
O57         C67 1.250       .   A
O57        Cu65 1.951       .   S
C765       C770 1.540       .   A
C765       H771 1.140       .   S
C765       C766 1.540       .   A
C152       C766 1.585       .   S
C766       C767 1.540       .   A
C475       H481 1.140       .   S
C767       C768 1.540       .   A
C767       H772 1.140       .   S
C477       H482 1.140       .   S
O162      Cu164 1.951       .   S
O162       C165 1.250       .   A
O160       C167 1.251       .   A
O160      Cu164 1.951       .   S
O161       C166 1.250       .   A
O161      Cu164 1.951       .   S
C655       C660 1.540       .   A
C660       H664 1.140       .   S
C659       C660 1.540       .   A
C747       C748 1.540       .   A
C748       H753 1.140       .   S
C748       C749 1.540       .   A
C749       C750 1.540       .   A
C151       C746 1.585       .   S
C746       C747 1.540       .   A
C745       C746 1.540       .   A
C747       H752 1.140       .   S
O169      Cr187 1.973       .   S
O169       C177 1.278       .   S
C669       C670 1.540       .   A
C669       C123 1.585       .   S
C668       C669 1.540       .   A
C668       H673 1.140       .   S
C667       C668 1.540       .   A
C735       C740 1.540       .   A
C740       H744 1.140       .   S
C739       C740 1.540       .   A
C485       H491 1.140       .   S
C485       C490 1.540       .   A
C485       C486 1.540       .   A
O267       C268 1.278       .   D
O267      Cr275 1.973       .   S
C520       H524 1.140       .   S
C259       O260 1.278       .   S
O260      Cr276 1.973       .   S
O245      Cr253 1.973       .   S
O244      Cr253 1.973       .   S
Cr253      O256 1.961       .   S
O30         C40 1.250       .   A
O35         C40 1.250       .   A
C40        C446 1.585       .   S
O247      Cr254 1.973       .   S
Cr254      O256 1.961       .   S
O248      Cr254 1.973       .   S
O238      Cr254 1.973       .   S
O33         C42 1.250       .   A
O32         C42 1.250       .   A
C42        C436 1.585       .   S
C757       H762 1.140       .   S
C640       H644 1.140       .   S
C637       H642 1.140       .   S
C638       H643 1.140       .   S
C635       H641 1.140       .   S
O75        Cu80 1.951       .   S
O77        Cu80 1.951       .   S
O76        Cu80 1.951       .   S
Cu79       Cu80 2.630       .   S
O78        Cu80 1.951       .   S
C589       C590 1.540       .   A
C590       H594 1.140       .   S
C585       C590 1.540       .   A
C597       H602 1.140       .   S
C597       C598 1.540       .   A
C596       C597 1.540       .   A
C595       C596 1.540       .   A
C596        C95 1.585       .   S
C595       C600 1.540       .   A
C595       H601 1.140       .   S
C599       C205 1.585   1_556   S
C599       C600 1.540       .   A
C598       C599 1.540       .   A
C598       H603 1.140       .   S
C610       H614 1.140       .   S
C609       C610 1.540       .   A
C605       C610 1.540       .   A
C698       H703 1.140       .   S
C698       C699 1.540       .   A
C697       C698 1.540       .   A
C699       C700 1.540       .   A
C699       C340 1.585   1_565   S
C348       H353 1.140       .   S
C348       C349 1.540       .   A
C347       C348 1.540       .   A
C349       C350 1.540       .   A
C252       C349 1.585   1_566   S
C690       H694 1.140       .   S
C689       C690 1.540       .   A
C685       C690 1.540       .   A
O339       C340 1.278       .   D
O332       C340 1.278       .   S
C346        C13 1.585       .   S
C346       C347 1.540       .   A
C345       C346 1.540       .   A
C695       C700 1.540       .   A
C695       H701 1.140       .   S
C695       C696 1.540       .   A
C696       C126 1.585       .   S
C696       C697 1.540       .   A
C697       H702 1.140       .   S
C487       H492 1.140       .   S
C490       H494 1.140       .   S
C685       H691 1.140       .   S
C618       C619 1.540       .   A
C618       H623 1.140       .   S
C617       C618 1.540       .   A
C615       C620 1.540       .   A
C615       H621 1.140       .   S
C615       C616 1.540       .   A
C688       H693 1.140       .   S
C318       C619 1.585   1_454   S
C619       C620 1.540       .   A
C687       H692 1.140       .   S
C368       C369 1.540       .   A
C369        C14 1.585       .   S
C369       C370 1.540       .   A
C526       C527 1.540       .   A
C525       C526 1.540       .   A
C183       C526 1.585   1_454   S
C527       H532 1.140       .   S
C527       C528 1.540       .   A
C525       C530 1.540       .   A
C525       H531 1.140       .   S
C797       H802 1.140       .   S
C519       C520 1.540       .   A
C515       C520 1.540       .   A
O279       C287 1.278       .   S
C287       C569 1.585       .   S
O286       C287 1.278       .   D
C785       H791 1.140       .   S
C787       H792 1.140       .   S
C284       C409 1.585       .   S
O283       C284 1.278       .   D
C284       O285 1.278       .   S
C790       H794 1.140       .   S
C555       C560 1.540       .   A
C560       H564 1.140       .   S
C559       C560 1.540       .   A
C281       C739 1.585       .   S
C281       O282 1.278       .   S
O280       C281 1.278       .   D
C529       C530 1.540       .   A
C70        C529 1.585       .   S
C528       C529 1.540       .   A
C290       C449 1.585       .   S
C449       C450 1.540       .   A
C757       C758 1.540       .   A
C756       C757 1.540       .   A
C665       H671 1.140       .   S
C445       C450 1.540       .   A
C445       C446 1.540       .   A
C445       H451 1.140       .   S
C446       C447 1.540       .   A
C447       H452 1.140       .   S
O7         Cu10 1.951       .   S
O6         Cu10 1.951       .   S
O5         Cu10 1.951       .   S
Cu9        Cu10 2.630       .   S
O8         Cu10 1.951       .   S
C636       C112 1.585       .   S
O102       C112 1.250       .   A
O103       C112 1.250       .   A
C111       C646 1.585       .   S
O101       C111 1.250       .   A
O104       C111 1.251       .   A
C110       C629 1.585       .   S
O100       C110 1.250       .   A
O105       C110 1.250       .   A
O103      Cu108 1.951       .   S
O104      Cu108 1.951       .   S
O105      Cu108 1.951       .   S
O106      Cu108 1.951       .   S
Cu107     Cu108 2.630       .   S
O88        Cu93 1.951       .   S
O88         C98 1.250       .   A
C237       O238 1.278       .   S
O85        Cu93 1.951       .   S
O85         C95 1.250       .   A
O86        Cu93 1.951       .   S
O86         C96 1.250       .   A
O87        Cu93 1.951       .   S
O87         C97 1.250       .   A
O100      Cu107 1.951       .   S
O101      Cu107 1.951       .   S
O102      Cu107 1.951       .   S
O99       Cu107 1.951       .   S
O242       C243 1.278       .   D
C243       C549 1.585       .   S
C420       H424 1.140       .   S
C417       H422 1.140       .   S
C418       H423 1.140       .   S
C478       H483 1.140       .   S
C415       H421 1.140       .   S
C290       O291 1.278       .   S
O291      Cr298 1.973       .   S
O292      Cr298 1.973       .   S
O292       C293 1.278       .   D
C380       H384 1.140       .   S
O294      Cr299 1.973       .   S
C293       O294 1.278       .   S
O295       C296 1.278       .   D
O295      Cr299 1.973       .   S
C375       H381 1.140       .   S
O17        Cu23 1.951       .   S
O17         C27 1.250       .   A
O16         C26 1.250       .   A
O16        Cu23 1.951       .   S
O15        Cu23 1.951       .   S
O15         C25 1.250       .   A
C240       C709 1.585       .   S
C240       O241 1.278       .   S
C540       H544 1.140       .   S
C535       H541 1.140       .   S
O19        Cu24 1.951       .   S
O19         C28 1.250       .   A
O18         C28 1.250       .   A
O18        Cu23 1.951       .   S
O264      Cr277 1.973       .   S
O264       C265 1.278       .   D
O222       C230 1.278       .   S
O229       C230 1.278       .   D
C230       C439 1.585   1_545   S
O266      Cr275 1.973       .   S
O266       C274 1.278       .   S
O261      Cr276 1.973       .   S
O261       C262 1.278       .   D
C469       C237 1.585       .   S
O263      Cr277 1.973       .   S
C262       O263 1.278       .   S
Cr343      O344 1.961       .   S
Cr342      O344 1.961       .   S
Cr341      O344 1.961       .   S
C268       O269 1.278       .   S
O269      Cr276 1.973       .   S
C567       C568 1.540       .   A
C567       H572 1.140       .   S
O127       C137 1.250       .   A
O127      Cu135 1.951       .   S
C795       H801 1.140       .   S
O120      Cu122 1.951       .   S
O120       C123 1.250       .   A
C798       H803 1.140       .   S
O128      Cu135 1.951       .   S
O128       C138 1.250       .   A
O129       C139 1.250       .   A
O129      Cu135 1.951       .   S
C628       C629 1.540       .   A
C629       C630 1.540       .   A
C628       H633 1.140       .   S
C627       C628 1.540       .   A
C620       H624 1.140       .   S
C625       H631 1.140       .   S
C625       C630 1.540       .   A
C625       C626 1.540       .   A
C627       H632 1.140       .   S
C626       C627 1.540       .   A
C259       C626 1.585       .   S
C450       H454 1.140       .   S
O192       C193 1.278       .   D
O192      Cr209 1.973       .   S
O191       C199 1.278       .   S
O191      Cr209 1.973       .   S
Cr187      O190 1.961       .   S
Cr189      O190 1.961       .   S
Cr188      O190 1.961       .   S
C196       O197 1.278       .   S
O197      Cr211 1.973       .   S
O195       C196 1.278       .   D
O195      Cr210 1.973       .   S
C193       O194 1.278       .   S
O194      Cr210 1.973       .   S
C480       H484 1.140       .   S
C565       C570 1.540       .   A
C565       H571 1.140       .   S
O198      Cr211 1.973       .   S
O198       C199 1.278       .   D
C578       H583 1.140       .   S
C154       C756 1.585       .   S
C755       C756 1.540       .   A
C457       C458 1.540       .   A
C456       C457 1.540       .   A
C715       H721 1.140       .   S
C718       H723 1.140       .   S
C717       H722 1.140       .   S
C720       H724 1.140       .   S
C715       C716 1.540       .   A
C715       C720 1.540       .   A
C568       C569 1.540       .   A
C568       H573 1.140       .   S
C716       C717 1.540       .   A
C717       C718 1.540       .   A
C262       C716 1.585       .   S
C709       C710 1.540       .   A
C710       H714 1.140       .   S
C705       C710 1.540       .   A
C497       C498 1.540       .   A
C498       H503 1.140       .   S
C498       C499 1.540       .   A
C309       C499 1.585       .   S
C499       C500 1.540       .   A
C54        C496 1.585       .   S
C496       C497 1.540       .   A
C495       C496 1.540       .   A
C497       H502 1.140       .   S
C495       C500 1.540       .   A
C495       H501 1.140       .   S
C137       C719 1.585       .   S
C719       C720 1.540       .   A
C718       C719 1.540       .   A
C489       C490 1.540       .   A
C459       C334 1.585   1_566   S
C459       C460 1.540       .   A
C458       C459 1.540       .   A
C658       H663 1.140       .   S
C657       C658 1.540       .   A
C658       C659 1.540       .   A
C659       C331 1.585       .   S
C306       C819 1.585       .   S
C655       H661 1.140       .   S
C655       C656 1.540       .   A
C656       C657 1.540       .   A
C656       C109 1.585       .   S
C657       H662 1.140       .   S
C645       C650 1.540       .   A
C650       H654 1.140       .   S
C649       C650 1.540       .   A
C303       C579 1.585       .   S
C605       H611 1.140       .   S
C608       H613 1.140       .   S
C607       H612 1.140       .   S
C587       H592 1.140       .   S
C588       H593 1.140       .   S
C585       H591 1.140       .   S
C708       H713 1.140       .   S
O36         C39 1.250       .   A
C39        C456 1.585       .   S
O200      Cr209 1.973       .   S
O201      Cr209 1.973       .   S
Cr209      O212 1.961       .   S
C750       H754 1.140       .   S
C745       H751 1.140       .   S
O146       C153 1.251       .   A
C153       C776 1.585       .   S
O143       C153 1.250       .   A
O142       C152 1.250       .   A
O147       C152 1.250       .   A
O141       C151 1.250       .   A
O148       C151 1.250       .   A
C405       H411 1.140       .   S
C405       C410 1.540       .   A
C405       C406 1.540       .   A
C407       C408 1.540       .   A
C407       H412 1.140       .   S
C406       C407 1.540       .   A
O144       C154 1.250       .   A
O145       C154 1.250       .   A
C409       C410 1.540       .   A
C408       C409 1.540       .   A
C408       H413 1.140       .   S
C428       C429 1.540       .   A
C429       C430 1.540       .   A
C208       C429 1.585   1_554   S
C569       C570 1.540       .   A
C395       C400 1.540       .   A
C395       H401 1.140       .   S
C395       C396 1.540       .   A
C397       C398 1.540       .   A
C397       H402 1.140       .   S
C396       C397 1.540       .   A
C28        C396 1.585       .   S
C399       C400 1.540       .   A
C215       C399 1.585       .   S
C398       C399 1.540       .   A
C398       H403 1.140       .   S
O258       C259 1.278       .   D
O258      Cr275 1.973       .   S
C458       H463 1.140       .   S
Cr255      O256 1.961       .   S
O257      Cr275 1.973       .   S
O257       C265 1.278       .   S
O250      Cr255 1.973       .   S
O251       C252 1.278       .   D
O251      Cr255 1.973       .   S
C500       H504 1.140       .   S
C378       H383 1.140       .   S
O273       C274 1.278       .   D
C509       C274 1.585   1_655   S
C415       C420 1.540       .   A
C419       C420 1.540       .   A
C271       O272 1.278       .   S
O270       C271 1.278       .   D
C271       C359 1.585   1_556   S
C815       H821 1.140       .   S
C815       C816 1.540       .   A
C815       C820 1.540       .   A
O229      Cr233 1.973       .   S
O228      Cr233 1.973       .   S
C227       O228 1.278       .   S
C53        C476 1.585       .   S
C475       C476 1.540       .   A
C476       C477 1.540       .   A
C477       C478 1.540       .   A
O62        Cu66 1.951       .   S
O63        Cu66 1.951       .   S
O61        Cu66 1.951       .   S
O64        Cu66 1.951       .   S
Cu65       Cu66 2.630       .   S
C577       C578 1.540       .   A
C578       C579 1.540       .   A
C377       H382 1.140       .   S
O60        Cu65 1.951       .   S
C575       C580 1.540       .   A
C575       H581 1.140       .   S
C575       C576 1.540       .   A
O220      Cr233 1.973       .   S
O220       C221 1.278       .   D
O223       C224 1.278       .   D
O223      Cr231 1.973       .   S
O222      Cr231 1.973       .   S
C224       O225 1.278       .   S
O225      Cr232 1.973       .   S
C570       H574 1.140       .   S
O226      Cr232 1.973       .   S
O226       C227 1.278       .   D
O130      Cu135 1.951       .   S
Cu135     Cu136 2.630       .   S
O131      Cu136 1.951       .   S
O133      Cu136 1.951       .   S
O132      Cu136 1.951       .   S
O134      Cu136 1.951       .   S
C370       H374 1.140       .   S
C367       H372 1.140       .   S
C368       H373 1.140       .   S
C365       H371 1.140       .   S
C465       H471 1.140       .   S
C528       H533 1.140       .   S
C468       H473 1.140       .   S
C467       H472 1.140       .   S
O48         C55 1.251       .   A
O49         C54 1.250       .   A
O317       C318 1.278       .   D
C315       O316 1.278       .   S
O311      Cr319 1.973       .   S
O311       C312 1.278       .   D
O310      Cr319 1.973       .   S
O310       C318 1.278       .   S
C312       O313 1.278       .   S
O43         C53 1.250       .   A
O44         C54 1.250       .   A
O45         C55 1.250       .   A
O46         C56 1.250       .   A
O47         C56 1.250       .   A
C547       H552 1.140       .   S
C548       H553 1.140       .   S
C759       C268 1.585   1_665   S
C758       C759 1.540       .   A
C758       H763 1.140       .   S
C545       H551 1.140       .   S
O179      Cr187 1.973       .   S
O179       C180 1.278       .   D
O178      Cr187 1.973       .   S
O178       C186 1.278       .   S
C616        C97 1.585       .   S
C616       C617 1.540       .   A
C617       H622 1.140       .   S
O175      Cr189 1.973       .   S
C174       O175 1.278       .   S
C745       C750 1.540       .   A
O176      Cr189 1.973       .   S
O176       C177 1.278       .   D
C755       H761 1.140       .   S
O170       C171 1.278       .   D
O170      Cr187 1.973       .   S
O173       C174 1.278       .   D
O173      Cr188 1.973       .   S
C171       O172 1.278       .   S
O172      Cr188 1.973       .   S
C819       C820 1.540       .   A
C818       C819 1.540       .   A
C366       C367 1.540       .   A
C367       C368 1.540       .   A
C550       H554 1.140       .   S
C530       H534 1.140       .   S
C705       H711 1.140       .   S
C707       H712 1.140       .   S
C727       H732 1.140       .   S
C726       C727 1.540       .   A
C727       C728 1.540       .   A
C645       H651 1.140       .   S
O60         C70 1.250       .   A
O61         C70 1.250       .   A
C648       H653 1.140       .   S
C647       H652 1.140       .   S
Cu93       Cu94 2.630       .   S
O92        Cu94 1.951       .   S
O89        Cu94 1.951       .   S
O91        Cu94 1.951       .   S
O90        Cu94 1.951       .   S
C355       H361 1.140       .   S
C355       C356 1.540       .   A
C355       C360 1.540       .   A
C356       C357 1.540       .   A
C357       C358 1.540       .   A
C357       H362 1.140       .   S
C11        C356 1.585       .   S
C728       C729 1.540       .   A
C728       H733 1.140       .   S
C729       C730 1.540       .   A
C218       C729 1.585       .   S
C345       H351 1.140       .   S
C345       C350 1.540       .   A
C725       C726 1.540       .   A
C725       H731 1.140       .   S
C725       C730 1.540       .   A
C140       C726 1.585       .   S
C358       C359 1.540       .   A
C358       H363 1.140       .   S
C312       C689 1.585   1_455   S
C688       C689 1.540       .   A
C687       C688 1.540       .   A
C679       C680 1.540       .   A
C680       H684 1.140       .   S
C675       C680 1.540       .   A
C686       C687 1.540       .   A
C685       C686 1.540       .   A
C686       C125 1.585       .   S
C678       H683 1.140       .   S
C82        C556 1.585       .   S
O77         C82 1.250       .   A
O72         C82 1.250       .   A
C675       H681 1.140       .   S
C556       C557 1.540       .   A
C557       H562 1.140       .   S
C557       C558 1.540       .   A
C665       C670 1.540       .   A
C665       C666 1.540       .   A
Cu23       Cu24 2.630       .   S
C535       C540 1.540       .   A
C535       C536 1.540       .   A
C537       C538 1.540       .   A
C537       H542 1.140       .   S
C536       C537 1.540       .   A
C337       C536 1.585   1_554   S
C778       H783 1.140       .   S
C777       H782 1.140       .   S
C775       H781 1.140       .   S
C667       H672 1.140       .   S
C666       C667 1.540       .   A
C780       H784 1.140       .   S
C438       C439 1.540       .   A
C438       H443 1.140       .   S
C437       C438 1.540       .   A
C518       H523 1.140       .   S
C666       C202 1.585       .   S
O30        Cu37 1.951       .   S
C430       H434 1.140       .   S
C425       C430 1.540       .   A
O113       C123 1.250       .   A
O117       C126 1.250       .   A
O116       C126 1.250       .   A
C515       H521 1.140       .   S
C124       C676 1.585       .   S
O119       C124 1.250       .   A
O114       C124 1.250       .   A
O118       C125 1.251       .   A
O115       C125 1.250       .   A
C328       O329 1.278       .   S
O329      Cr343 1.973       .   S
O324      Cr341 1.973       .   S
O324       C325 1.278       .   D
O35        Cu38 1.951       .   S
O326      Cr342 1.973       .   S
C325       O326 1.278       .   S
O327       C328 1.278       .   D
O327      Cr342 1.973       .   S
Cr319      O322 1.961       .   S
O323      Cr341 1.973       .   S
O323       C331 1.278       .   S
C425       H431 1.140       .   S
O289      Cr297 1.973       .   S
O289       C290 1.278       .   D
O288      Cr297 1.973       .   S
O288       C296 1.278       .   S
O184      Cr189 1.973       .   S
O185      Cr189 1.973       .   S
O181      Cr188 1.973       .   S
O182      Cr188 1.973       .   S
C350       H354 1.140       .   S
O283      Cr298 1.973       .   S
O282      Cr298 1.973       .   S
O280      Cr297 1.973       .   S
O286      Cr299 1.973       .   S
O285      Cr299 1.973       .   S
O338      Cr343 1.973       .   S
O339      Cr343 1.973       .   S
O330      Cr343 1.973       .   S
O336      Cr342 1.973       .   S
O335      Cr342 1.973       .   S
O333      Cr341 1.973       .   S
O332      Cr341 1.973       .   S
O90         C97 1.251       .   A
O91         C96 1.250       .   A
C586        C96 1.585       .   S
O92         C95 1.250       .   A
C555       C556 1.540       .   A
O89         C98 1.250       .   A
C606        C98 1.585       .   S
C555       H561 1.140       .   S
C545       C546 1.540       .   A
C545       C550 1.540       .   A
Cr211      O212 1.961       .   S
Cr210      O212 1.961       .   S
O213      Cr231 1.973       .   S
O213       C221 1.278       .   S
O214       C215 1.278       .   D
O214      Cr231 1.973       .   S
C215       O216 1.278       .   S
O216      Cr232 1.973       .   S
O217      Cr232 1.973       .   S
O217       C218 1.278       .   D
C224       C769 1.585   1_545   S
C519       C227 1.585       .   S
C221       C639 1.585       .   S
C549       C550 1.540       .   A
C548       C549 1.540       .   A
O131       C140 1.250       .   A
O130       C140 1.250       .   A
O133       C138 1.250       .   A
O132       C139 1.251       .   A
O134       C137 1.250       .   A
C820       H824 1.140       .   S
Cu163     Cu164 2.630       .   S
O159      Cu164 1.951       .   S
O157      Cu163 1.951       .   S
O156      Cu163 1.951       .   S
O155      Cu163 1.951       .   S
O158      Cu163 1.951       .   S
C440       H444 1.140       .   S
C435       H441 1.140       .   S
C437       H442 1.140       .   S
O145      Cu150 1.951       .   S
O146      Cu150 1.951       .   S
O147      Cu150 1.951       .   S
C768       H773 1.140       .   S
C768       C769 1.540       .   A
C769       C770 1.540       .   A
O148      Cu150 1.951       .   S
C486       C487 1.540       .   A
C56        C486 1.585       .   S
C648       C649 1.540       .   A
C177       C649 1.585       .   S
C647       C648 1.540       .   A
C646       C647 1.540       .   A
C645       C646 1.540       .   A
O314       C315 1.278       .   D
C315       C379 1.585   1_565   S
C635       C640 1.540       .   A
C639       C640 1.540       .   A
C630       H634 1.140       .   S
C26        C406 1.585       .   S
C27        C386 1.585       .   S
C25        C416 1.585       .   S
C577       H582 1.140       .   S
C580       H584 1.140       .   S
O219      Cr233 1.973       .   S
C738       H743 1.140       .   S
C735       H741 1.140       .   S
O159       C168 1.250       .   A
O158       C168 1.250       .   A
C168       C789 1.585       .   S
O156       C166 1.250       .   A
O157       C167 1.250       .   A
C796       C167 1.585       .   S
O155       C165 1.250       .   A
C165       C816 1.585       .   S
C68        C539 1.585       .   S
C538       C539 1.540       .   A
C539       C540 1.540       .   A
C468       C469 1.540       .   A
C538       H543 1.140       .   S
C365       C366 1.540       .   A
C365       C370 1.540       .   A
C186       C366 1.585       .   S
C467       C468 1.540       .   A
C359       C360 1.540       .   A
C360       H364 1.140       .   S
O185       C186 1.278       .   D
C180       C679 1.585   1_445   S
C180       O181 1.278       .   S
O182       C183 1.278       .   D
C183       O184 1.278       .   S
O244       C252 1.278       .   S
O242      Cr255 1.973       .   S
O241      Cr255 1.973       .   S
C636       C637 1.540       .   A
C635       C636 1.540       .   A
C818       H823 1.140       .   S
C817       C818 1.540       .   A
O31         C41 1.250       .   A
O34         C41 1.251       .   A
C41        C426 1.585       .   S
C479       C265 1.585       .   S
C439       C440 1.540       .   A
C508       C509 1.540       .   A
C507       C508 1.540       .   A
C509       C510 1.540       .   A
C465       C466 1.540       .   A
O74        Cu79 1.951       .   S
O71        Cu79 1.951       .   S
O73        Cu79 1.951       .   S
O72        Cu79 1.951       .   S
C455       C460 1.540       .   A
C505       C510 1.540       .   A
C505       C506 1.540       .   A
C506        C67 1.585       .   S
C506       C507 1.540       .   A
O119      Cu122 1.951       .   S
O118      Cu122 1.951       .   S
O117      Cu122 1.951       .   S
Cu121     Cu122 2.630       .   S
O113      Cu121 1.951       .   S
O116      Cu121 1.951       .   S
O115      Cu121 1.951       .   S
O114      Cu121 1.951       .   S
C400       H404 1.140       .   S
C436       C437 1.540       .   A
C558       H563 1.140       .   S
C435       C440 1.540       .   A
C435       C436 1.540       .   A
O78         C81 1.250       .   A
O75         C84 1.250       .   A
O74         C84 1.250       .   A
O76         C83 1.251       .   A
O71         C81 1.250       .   A
O73         C83 1.250       .   A
C600       H604 1.140       .   S
C607       C608 1.540       .   A
C606       C607 1.540       .   A
C605       C606 1.540       .   A
O106       C109 1.250       .   A
C390       H394 1.140       .   S
C385       C390 1.540       .   A
C389       C390 1.540       .   A
C479       C480 1.540       .   A
C478       C479 1.540       .   A
C347       H352 1.140       .   S
O63         C68 1.250       .   A
O62         C69 1.251       .   A
C516        C69 1.585       .   S
O272      Cr277 1.973       .   S
Cr277      O278 1.961       .   S
O273      Cr277 1.973       .   S
Cr276      O278 1.961       .   S
O270      Cr276 1.973       .   S
Cr275      O278 1.961       .   S
C738       C739 1.540       .   A
C328       C419 1.585       .   S
C735       C736 1.540       .   A
C736       C138 1.585       .   S
C428       H433 1.140       .   S
C730       H734 1.140       .   S
C427       H432 1.140       .   S
C466       C467 1.540       .   A
O6          C13 1.251       .   A
O3          C13 1.250       .   A
O7          C12 1.250       .   A
O2          C12 1.250       .   A
O8          C11 1.250       .   A
O1          C11 1.250       .   A
O5          C14 1.250       .   A
O4          C14 1.250       .   A
O31        Cu37 1.951       .   S
O32        Cu37 1.951       .   S
Cu37       Cu38 2.630       .   S
O33        Cu38 1.951       .   S
O34        Cu38 1.951       .   S
O36        Cu38 1.951       .   S
C139       C706 1.585       .   S
C779       C780 1.540       .   A
C775       C780 1.540       .   A
C427       C428 1.540       .   A
C786       C196 1.585       .   S
C786       C787 1.540       .   A
C785       C786 1.540       .   A
C787       C788 1.540       .   A
C785       C790 1.540       .   A
C788       H793 1.140       .   S
C788       C789 1.540       .   A
C789       C790 1.540       .   A
C426       C427 1.540       .   A
C425       C426 1.540       .   A
C337       O338 1.278       .   S
O336       C337 1.278       .   D
C334       O335 1.278       .   S
O333       C334 1.278       .   D
O330       C331 1.278       .   D
C677       H682 1.140       .   S
C81        C546 1.585       .   S
O279      Cr297 1.973       .   S
C84        C576 1.585       .   S
C218       O219 1.278       .   S
C202       O203 1.278       .   S
O203      Cr210 1.973       .   S
O201       C202 1.278       .   D
O200       C208 1.278       .   S
O207      Cr211 1.973       .   S
O207       C208 1.278       .   D
C205       O206 1.278       .   S
O206      Cr211 1.973       .   S
O204       C205 1.278       .   D
O204      Cr210 1.973       .   S
C559       C199 1.585       .   S
C558       C559 1.540       .   A
C817       H822 1.140       .   S
C466        C55 1.585       .   S
C810       H814 1.140       .   S
C816       C817 1.540       .   A
O4          Cu9 1.951       .   S
O3          Cu9 1.951       .   S
O2          Cu9 1.951       .   S
O1          Cu9 1.951       .   S
C546       C547 1.540       .   A
C547       C548 1.540       .   A
C708       C709 1.540       .   A
C707       C708 1.540       .   A
C770       H774 1.140       .   S
C777       C778 1.540       .   A
C776       C777 1.540       .   A
C775       C776 1.540       .   A
C778       C779 1.540       .   A
C296       C779 1.585       .   S
C678       C679 1.540       .   A
C677       C678 1.540       .   A
C670       H674 1.140       .   S
C676       C677 1.540       .   A
C675       C676 1.540       .   A
C579       C580 1.540       .   A
C585       C586 1.540       .   A
C586       C587 1.540       .   A
C587       C588 1.540       .   A
C608       C609 1.540       .   A
C293       C609 1.585       .   S
C475       C480 1.540       .   A
C489       C171 1.585       .   S
C799       C174 1.585       .   S
C378       C379 1.540       .   A
C379       C380 1.540       .   A
C377       C378 1.540       .   A
C375       C380 1.540       .   A
C193       C389 1.585       .   S
C576       C577 1.540       .   A
C518       C519 1.540       .   A
C517       C518 1.540       .   A
C455       C456 1.540       .   A
O99        C109 1.250       .   A
C516       C517 1.540       .   A
C515       C516 1.540       .   A
C385       H391 1.140       .   S
C387       H392 1.140       .   S
C388       H393 1.140       .   S
O64         C67 1.250       .   A
C410       H414 1.140       .   S
C416       C417 1.540       .   A
C415       C416 1.540       .   A
C637       C638 1.540       .   A
C638       C639 1.540       .   A
C588       C589 1.540       .   A
C700       H704 1.140       .   S
C706       C707 1.540       .   A
C705       C706 1.540       .   A
C417       C418 1.540       .   A
C418       C419 1.540       .   A
C386       C387 1.540       .   A
C385       C386 1.540       .   A
C387       C388 1.540       .   A
C798       C799 1.540       .   A
C797       C798 1.540       .   A
C795       C796 1.540       .   A
C796       C797 1.540       .   A
C388       C389 1.540       .   A
