data_ucp_v1-4c_Cu_1_Ch_v2-3c_B_Ch_1B_4H_Ch_1B_4H_Ch
_audit_creation_date              2019-08-21
_audit_creation_method            'tobacco_3.0'
_symmetry_space_group_name_H-M    'P1'
_symmetry_Int_Tables_number       1
_symmetry_cell_setting            triclinic
loop_
_symmetry_equiv_pos_as_xyz
  x,y,z
_cell_length_a                    43.81465769648629
_cell_length_b                    43.813820540821396
_cell_length_c                    43.815071968345144
_cell_angle_alpha                 89.97825762759592
_cell_angle_beta                  89.97733143808242
_cell_angle_gamma                 89.97858721129904
loop_
_atom_site_label
_atom_site_type_symbol
_atom_site_fract_x
_atom_site_fract_y
_atom_site_fract_z
O1         O    0.0313056525    0.2544894397    0.2987798207
O2         O   -0.0313185481    0.2987932645    0.2545011896
O3         O   -0.0313229857    0.2545029612    0.2987903106
O4         O    0.0313100890    0.2987829752    0.2544874751
O5         O    0.0313229846    0.2629002709    0.2186064648
O6         O   -0.0313055262    0.2186203154    0.2629093573
O7         O   -0.0313056525    0.2629105603    0.2186201793
O8         O    0.0313185481    0.2186067355    0.2628988104
Cu9       Cu   -0.0000096050    0.2799168754    0.2799138493
Cu10      Cu    0.0000096050    0.2374831246    0.2374861507
C11        C    0.0405454608    0.2300148754    0.2873678674
C12        C   -0.0405454608    0.2873851246    0.2300321326
C13        C   -0.0405458468    0.2300337247    0.2873839528
C14        C    0.0405458468    0.2873662753    0.2300160472
O15        O    0.0313892245    0.7486597294    0.2630444442
O16        O   -0.0312221084    0.7043998833    0.2187840305
O17        O   -0.0312394141    0.7486712782    0.2630584623
O18        O    0.0314065301    0.7043851112    0.2187667814
O19        O    0.0314062102    0.6684876858    0.2546603008
O20        O   -0.0312351700    0.7127739097    0.2989519212
O21        O   -0.0312224282    0.6685024579    0.2546775498
O22        O    0.0313889047    0.7127623040    0.2989379636
Cu23      Cu    0.0000816071    0.7298046489    0.2376377284
Cu24      Cu    0.0000851891    0.6873575384    0.2800842657
C25        C    0.0406205275    0.7372367985    0.2875180155
C26        C   -0.0404537312    0.6799253888    0.2302039786
C27        C   -0.0404707801    0.7372542556    0.2875348235
C28        C    0.0406375763    0.6799079317    0.2301871705
O29        O   -0.0312146423    0.2546768150    0.6685017097
O30        O    0.0313942463    0.2989375259    0.7127647150
O31        O    0.0314139956    0.2546641933    0.6684922198
O32        O   -0.0312343916    0.2989533785    0.7127774282
O33        O   -0.0312360238    0.2630569192    0.7486719136
O34        O    0.0314077995    0.2187677943    0.7043866482
O35        O    0.0313926142    0.2630410665    0.7486592004
O36        O   -0.0312162744    0.2187803556    0.7043961951
Cu37      Cu    0.0000919310    0.2800839477    0.6873586382
Cu38      Cu    0.0000860409    0.2376339338    0.7298022718
C39        C   -0.0404465608    0.2302017299    0.6799227047
C40        C    0.0406245327    0.2875161516    0.7372382053
C41        C    0.0406447459    0.2301867300    0.6799079137
C42        C   -0.0404667740    0.2875311515    0.7372529963
O43        O    0.0314919700    0.7129341978    0.6686429667
O44        O   -0.0311329738    0.6686566274    0.7129495479
O45        O   -0.0311366693    0.7129468345    0.6686603308
O46        O    0.0314956644    0.6686407586    0.7129354084
O47        O    0.0314843045    0.7045235420    0.7488163389
O48        O   -0.0311434652    0.7488295575    0.7045412023
O49        O   -0.0311443337    0.7045394108    0.7488304785
O50        O    0.0314806102    0.7488169812    0.7045238972
Cu51      Cu    0.0001785544    0.6875198830    0.6875229214
Cu52      Cu    0.0001690820    0.7299537256    0.7299505238
C53        C    0.0407197598    0.7374049307    0.6800507590
C54        C   -0.0403721234    0.6800686779    0.7374226861
C55        C   -0.0403715479    0.7374199509    0.6800707390
C56        C    0.0407191842    0.6800536577    0.7374027062
O57        O    0.3151458334    1.0149427753    0.2544888622
O58        O    0.2708679645    0.9523157403    0.2987927359
O59        O    0.3151569415    0.9523129404    0.2545024186
O60        O    0.2708536319    1.0149455740    0.2987824116
O61        O    0.2349718263    1.0149575150    0.2629017686
O62        O    0.2792751928    0.9523294454    0.2186218341
O63        O    0.2349861589    0.9523276813    0.2629120929
O64        O    0.2792640278    1.0149547163    0.2186082192
Cu65      Cu    0.2962803156    0.9836261877    0.2799161342
Cu66      Cu    0.2538516767    0.9836442689    0.2374848209
C67        C    0.3037333701    1.0241825241    0.2300153213
C68        C    0.2463986222    0.9430879325    0.2873856338
C69        C    0.3037502559    0.9430896672    0.2300342157
C70        C    0.2463817364    1.0241807894    0.2873667394
O71        O    0.2794167665    1.0150287481    0.7486521016
O72        O    0.2351562460    0.9524166187    0.7043923460
O73        O    0.2794295076    0.9523989133    0.7486633500
O74        O    0.2351402740    1.0150464533    0.7043778745
O75        O    0.2710354202    1.0150465666    0.6684821813
O76        O    0.3153245934    0.9524035906    0.7127677137
O77        O    0.2710513922    0.9524167320    0.6684966528
O78        O    0.3153119127    1.0150288614    0.7127564084
Cu79      Cu    0.2540098488    0.9837206929    0.7297969083
Cu80      Cu    0.2964583099    0.9837247871    0.6873518462
C81        C    0.3038911669    1.0242603851    0.7372300235
C82        C    0.2465769918    0.9431850950    0.6799187310
C83        C    0.3039063214    0.9431675287    0.7372470914
C84        C    0.2465618373    1.0242779514    0.6799016631
O85        O    0.6848596977    0.9524159798    0.2546858316
O86        O    0.7291202545    1.0150272410    0.2989467785
O87        O    0.6848493066    1.0150458144    0.2546734606
O88        O    0.7291338688    0.9523974065    0.2989623804
O89        O    0.7650302859    0.9523974268    0.2630679581
O90        O    0.7207456668    1.0150412707    0.2187790987
O91        O    0.7650166716    1.0150272613    0.2630523563
O92        O    0.7207561148    0.9524160001    0.2187914093
Cu93      Cu    0.7037152256    0.9837235887    0.2800928964
Cu94      Cu    0.7461611437    0.9837196525    0.2376452914
C95        C    0.6962820197    0.9431845377    0.2302117303
C96        C    0.7535943496    1.0242587035    0.2875264576
C97        C    0.6962660617    1.0242773937    0.2301970550
C98        C    0.7536103076    0.9431658474    0.2875411329
O99        O    0.7651839121    1.0151083925    0.7045238664
O100       O    0.7209042539    0.9524821608    0.7488270865
O101       O    0.7651931153    0.9524785581    0.7045366537
O102       O    0.7208918262    1.0151119940    0.7488175314
O103       O    0.6850099265    1.0151254678    0.7129369818
O104       O    0.7293112727    0.9524965959    0.6686561626
O105       O    0.6850223543    0.9524956346    0.7129465369
O106       O    0.7293020125    1.0151218662    0.6686433169
Cu107     Cu    0.7463175082    0.9837920667    0.7299508031
Cu108     Cu    0.7038887582    0.9838119604    0.6875196003
C109       C    0.7537716656    1.0243487893    0.6800504687
C110       C    0.6964346007    0.9432552378    0.7374199347
C111       C    0.7537860850    0.9432559329    0.6800683671
C112       C    0.6964201814    1.0243480941    0.7374020362
O113       O    0.3151581772    0.2545001032    0.9523164769
O114       O    0.2708526473    0.2987754118    1.0149430323
O115       O    0.3151426062    0.2544857824    1.0149445242
O116       O    0.2708649936    0.2987929647    0.9523149863
O117       O    0.2349839853    0.2629097133    0.9523266152
O118       O    0.2792616568    0.2186025915    1.0149515892
O119       O    0.2349716390    0.2628921604    1.0149546612
O120       O    0.2792771689    0.2186168518    0.9523281058
Cu121     Cu    0.2962787553    0.2799133298    0.9836306738
Cu122     Cu    0.2538510609    0.2374789338    0.9836404643
C123       C    0.3037501909    0.2300294698    0.9430885840
C124       C    0.2463796253    0.2873627938    1.0241825541
C125       C    0.3037325328    0.2300122690    1.0241791251
C126       C    0.2463972834    0.2873799946    0.9430920130
O127       O    0.7207649164    0.2187824906    0.9524163561
O128       O    0.7650250570    0.2630457017    1.0150251320
O129       O    0.7207511457    0.2187731121    1.0150444021
O130       O    0.7650420586    0.2630583036    0.9523970860
O131       O    0.7291474391    0.2989547616    0.9523960980
O132       O    0.6848565866    0.2546695131    1.0150388503
O133       O    0.7291304375    0.2989421597    1.0150241440
O134       O    0.6848702969    0.2546789487    0.9524153681
Cu135     Cu    0.7461715961    0.2376393420    0.9837228142
Cu136     Cu    0.7037237578    0.2800853083    0.9837176859
C137       C    0.6962908353    0.2302044417    0.9431847762
C138       C    0.7536045185    0.2875202087    1.0242557239
C139       C    0.6962743476    0.2301897948    1.0242753166
C140       C    0.7536210062    0.2875348556    0.9431651835
O141       O    0.2794227381    0.7486764410    0.9524010833
O142       O    0.2351337509    0.7043877230    1.0150400540
O143       O    0.2794079404    0.7486600309    1.0150291307
O144       O    0.2351453177    0.7044009098    0.9524120088
O145       O    0.2710397107    0.6685042252    0.9524114537
O146       O    0.3153022750    0.7127634052    1.0150240117
O147       O    0.2710281440    0.6684910385    1.0150394989
O148       O    0.3153171311    0.7127797564    0.9524005281
Cu149     Cu    0.2540016549    0.7298068560    0.9837226000
Cu150     Cu    0.2964492271    0.6873606234    0.9837179822
C151       C    0.3039009590    0.7372581374    0.9431652675
C152       C    0.2465499230    0.6799093421    1.0242753147
C153       C    0.3038804565    0.7372393933    1.0242558093
C154       C    0.2465704255    0.6799280861    0.9431847729
O155       O    0.7293035776    0.6686465775    1.0151253320
O156       O    0.6850273227    0.7129502408    0.9524995583
O157       O    0.7293179739    0.6686613038    0.9524972848
O158       O    0.6850096942    0.7129387390    1.0151276042
O159       O    0.7208907457    0.7488219473    1.0151155346
O160       O    0.7651989650    0.7045444534    0.9524897791
O161       O    0.7209083742    0.7488334491    0.9524874887
O162       O    0.7651846291    0.7045297858    1.0151132623
Cu163     Cu    0.7038900786    0.6875248653    0.9838115662
Cu164     Cu    0.7463218732    0.7299551614    0.9838012545
C165       C    0.7537732506    0.6800559390    1.0243528892
C166       C    0.6964387012    0.7374240876    0.9432599315
C167       C    0.7537905493    0.6800725035    0.9432623483
C168       C    0.6964214025    0.7374075232    1.0243504723
C169       C    0.1413137298    0.1680050090    0.3632535769
C170       C    0.1441757318    0.1708659776    0.3981636890
C171       C    0.1671344288    0.1507689388    0.4156192527
C172       C    0.1872311238    0.1278109314    0.3981647042
C173       C    0.1843691217    0.1249499629    0.3632545920
C174       C    0.1614104247    0.1450470017    0.3457990284
H175       H    0.1292977324    0.1878627016    0.4110883111
H176       H    0.2042265229    0.1129339027    0.4110863552
H177       H    0.1592930250    0.1429273063    0.3199527553
C178       C    0.8156574097    0.8423488316    0.3634059887
C179       C    0.8386020699    0.8222393862    0.3459465014
C180       C    0.8587129019    0.7992938857    0.3634058738
C181       C    0.8558790737    0.7964578308    0.3983247334
C182       C    0.8329344134    0.8165672762    0.4157842206
C183       C    0.8128235815    0.8395127767    0.3983248482
H184       H    0.8407016714    0.8243375755    0.3200937520
H185       H    0.8707663129    0.7794722006    0.4112492038
H186       H    0.7958367407    0.8544002175    0.4112531273
C187       C    0.8587826563    0.1681635407    0.6040961117
C188       C    0.8386933893    0.1452182017    0.6215735430
C189       C    0.8157504010    0.1251175218    0.6041365089
C190       C    0.8128966797    0.1279621810    0.5692220435
C191       C    0.8329859467    0.1509075200    0.5517446123
C192       C    0.8559289350    0.1710081998    0.5691816464
H193       H    0.8408046590    0.1431105816    0.6474230406
H194       H    0.7959129091    0.1130824570    0.5563141092
H195       H    0.8708014359    0.1879955439    0.5562400831
C196       C    0.1845350624    0.8424072750    0.6040925672
C197       C    0.1873786426    0.8395533859    0.5691779360
C198       C    0.1672772948    0.8166104425    0.5517414328
C199       C    0.1443323669    0.7965213883    0.5692195608
C200       C    0.1414887867    0.7993752774    0.6041341920
C201       C    0.1615901344    0.8223182208    0.6215706952
H202       H    0.2043656823    0.8544257292    0.5562358570
H203       H    0.1294521484    0.7795376509    0.5563120194
H204       H    0.1594833132    0.8244296147    0.6474203156
C205       C    0.3796199929    0.1680074118    0.1249461222
C206       C    0.4145304691    0.1708685495    0.1278076983
C207       C    0.4319864045    0.1507717556    0.1507662630
C208       C    0.4145318636    0.1278138240    0.1708632515
C209       C    0.3796213874    0.1249526862    0.1680016753
C210       C    0.3621654520    0.1450494801    0.1450431106
H211       H    0.4274550856    0.1878652175    0.1129294816
H212       H    0.4274537898    0.1129369765    0.1878585526
H213       H    0.3363189093    0.1429296596    0.1429260263
C214       C    0.3797748691    0.8423484680    0.7992916724
C215       C    0.4146940182    0.8395123686    0.7964576308
C216       C    0.4321535617    0.8165669673    0.8165683979
C217       C    0.4146939562    0.7964576654    0.8395132064
C218       C    0.3797748071    0.7992937648    0.8423472480
C219       C    0.3623152635    0.8222391661    0.8222364810
H220       H    0.4276223848    0.8543997032    0.7794706802
H221       H    0.4276185533    0.7794721087    0.8544003976
H222       H    0.3364622997    0.8243373884    0.8243362405
C223       C    0.6204581207    0.8424153452    0.1681648243
C224       C    0.6379363560    0.8223267511    0.1452198698
C225       C    0.6204996207    0.7993841236    0.1251184276
C226       C    0.5855846501    0.7965300900    0.1279619398
C227       C    0.5681064149    0.8166186841    0.1509068943
C228       C    0.5855431502    0.8395613117    0.1710083365
H229       H    0.6637862276    0.8244382520    0.1431130989
H230       H    0.5726769369    0.7795465865    0.1130816514
H231       H    0.5726009917    0.8544333143    0.1879953958
C232       C    0.6204681388    0.1681677098    0.8424114886
C233       C    0.6379455646    0.1452222500    0.8223226479
C234       C    0.6205082532    0.1251217226    0.7993798562
C235       C    0.5855935159    0.1279666549    0.7965259053
C236       C    0.5681160901    0.1509121146    0.8166147461
C237       C    0.5855534016    0.1710126421    0.8395575377
H238       H    0.6637952635    0.1431144278    0.8244340876
H239       H    0.5726853763    0.1130870436    0.7795422804
H240       H    0.5726118424    0.1880000756    0.8544297230
C241       C    0.1843777632    0.3632523064    0.1249554250
C242       C    0.1872379037    0.3981636173    0.1278164238
C243       C    0.1671404648    0.4156201561    0.1507744902
C244       C    0.1441828853    0.3981653840    0.1708715578
C245       C    0.1413227448    0.3632540731    0.1680105590
C246       C    0.1614201838    0.3457975343    0.1450524926
H247       H    0.2042343109    0.4110884051    0.1129381485
H248       H    0.1293055604    0.4110877569    0.1878664901
H249       H    0.1593011015    0.3199503736    0.1429358356
C250       C    0.8587121961    0.3634005174    0.7992856932
C251       C    0.8386022266    0.3459414599    0.8222302935
C252       C    0.8156569078    0.3634022016    0.8423405572
C253       C    0.8128215585    0.3983220008    0.8395062207
C254       C    0.8329315281    0.4157810583    0.8165616204
C255       C    0.8558768469    0.3983203166    0.7964513567
H256       H    0.8406998934    0.3200880148    0.8243302713
H257       H    0.7958360628    0.4112474849    0.8543930393
H258       H    0.8707646758    0.4112482776    0.7794645602
C259       C    0.1845439338    0.6040984207    0.8424013568
C260       C    0.1615998532    0.6215760453    0.8223119776
C261       C    0.1414992835    0.6041380015    0.7993699059
C262       C    0.1443427946    0.5692223332    0.7965172133
C263       C    0.1672868753    0.5517447086    0.8166065925
C264       C    0.1873874449    0.5691827523    0.8395486642
H265       H    0.1594930832    0.6474264334    0.8244224858
H266       H    0.1294631521    0.5563136515    0.7795341213
H267       H    0.2043738573    0.5562410459    0.8544212481
C268       C    0.8587693497    0.6041009005    0.1681692265
C269       C    0.8559159060    0.5691852541    0.1710126520
C270       C    0.8329738099    0.5517476135    0.1509116887
C271       C    0.8128851577    0.5692256194    0.1279672998
C272       C    0.8157386014    0.6041412658    0.1251238743
C273       C    0.8386806975    0.6215789064    0.1452248376
H274       H    0.8707879517    0.5562432654    0.1879992926
H275       H    0.7959020476    0.5563172361    0.1130873659
H276       H    0.8407917618    0.6474292784    0.1431181309
C277       C    0.1845201722    0.1250962416    0.6040329489
C278       C    0.1615754903    0.1452058700    0.6214921971
C279       C    0.1414643702    0.1681508777    0.6040325095
C280       C    0.1442979320    0.1709862571    0.5691135738
C281       C    0.1672426138    0.1508766287    0.5516543256
C282       C    0.1873537339    0.1279316210    0.5691140132
H283       H    0.1594760861    0.1431081808    0.6473450029
H284       H    0.1294104794    0.1879715226    0.5561888700
H285       H    0.2043405907    0.1130440447    0.5561859112
C286       C    0.8588569204    0.7994297947    0.6041873061
C287       C    0.8559955991    0.7965695091    0.5692770817
C288       C    0.8330370851    0.8166667319    0.5518214891
C289       C    0.8129398923    0.8396242403    0.5692761211
C290       C    0.8158012136    0.8424845260    0.6041863455
C291       C    0.8387597277    0.8223873031    0.6216419380
H292       H    0.8708739671    0.7795731544    0.5563523978
H293       H    0.7959446287    0.8545014053    0.5563544487
H294       H    0.8408766234    0.8245064928    0.6474882943
C295       C    0.1414004660    0.7992646476    0.3633446121
C296       C    0.1614898522    0.8222096149    0.3458668295
C297       C    0.1844327084    0.8423106793    0.3633035941
C298       C    0.1872861785    0.8394667763    0.3982181414
C299       C    0.1671967924    0.8165218091    0.4156959240
C300       C    0.1442539361    0.7964207447    0.3982591594
H301       H    0.1593787684    0.8243166750    0.3200172712
H302       H    0.2042698513    0.8543467850    0.4111258762
H303       H    0.1293813471    0.7794336758    0.4112009828
C304       C    0.8156314015    0.1250379843    0.3633490464
C305       C    0.8127891640    0.1278909024    0.3982638660
C306       C    0.8328915104    0.1508330328    0.4157002875
C307       C    0.8558360944    0.1709222450    0.3982218893
C308       C    0.8586783320    0.1680693268    0.3633070696
C309       C    0.8385759855    0.1451271965    0.3458706482
H310       H    0.7958023790    0.1130184421    0.4112061451
H311       H    0.8707170522    0.1879053804    0.4111293701
H312       H    0.8406818127    0.1430165214    0.3200208883
C313       C    0.1413980239    0.3633401431    0.7992774501
C314       C    0.1442525545    0.3982556394    0.7964332736
C315       C    0.1671951232    0.4156930096    0.8165339322
C316       C    0.1872831614    0.3982148834    0.8394787671
C317       C    0.1844286309    0.3632993870    0.8423229435
C318       C    0.1614860622    0.3458620169    0.8222222850
H319       H    0.1293809634    0.4111977172    0.7794463028
H320       H    0.2042666214    0.4111230665    0.8543584754
H321       H    0.1593741933    0.3200117560    0.8243295477
C322       C    0.8156376105    0.3633454002    0.1250315233
C323       C    0.8385820152    0.3458674090    0.1451202138
C324       C    0.8586825657    0.3633049702    0.1680626691
C325       C    0.8558387114    0.3982205228    0.1709164340
C326       C    0.8328943067    0.4156985140    0.1508277435
C327       C    0.8127937563    0.3982609527    0.1278852882
H328       H    0.8406890393    0.3200171065    0.1430089118
H329       H    0.8707183397    0.4111288473    0.1878998100
H330       H    0.7958071039    0.4112029306    0.1130132142
C331       C    0.8158040587    0.6041876736    0.8424922312
C332       C    0.8129431177    0.5692765125    0.8396302145
C333       C    0.8330400734    0.5518201962    0.8166715562
C334       C    0.8559979701    0.5692750411    0.7965749145
C335       C    0.8588589111    0.6041862023    0.7994369312
C336       C    0.8387619554    0.6216425185    0.8223955896
H337       H    0.7959464757    0.5563516708    0.8545081745
H338       H    0.8708749373    0.5563528330    0.7795795440
H339       H    0.8408816303    0.6474895683    0.8245130001
C340       C    0.1414528701    0.6040367937    0.1681430776
C341       C    0.1615623418    0.6214961126    0.1451982397
C342       C    0.1845081690    0.6040357529    0.1250882242
C343       C    0.1873445245    0.5691160743    0.1279230464
C344       C    0.1672350528    0.5516567555    0.1508678843
C345       C    0.1442892255    0.5691171152    0.1709778999
H346       H    0.1594639300    0.6473494684    0.1430979023
H347       H    0.2043303966    0.5561908730    0.1130364115
H348       H    0.1294017653    0.5561889607    0.1879648723
C349       C    0.3797178063    0.1250434522    0.7992630818
C350       C    0.3622394107    0.1451320022    0.8222079529
C351       C    0.3796760779    0.1680741468    0.8423100053
C352       C    0.4145911406    0.1709277415    0.8394671867
C353       C    0.4320695362    0.1508391916    0.8165223156
C354       C    0.4146328690    0.1278970470    0.7964202632
H355       H    0.3363894708    0.1430208261    0.8243142103
H356       H    0.4274988033    0.1879108876    0.8543479268
H357       H    0.4275751463    0.1130250770    0.7794332656
C358       C    0.3797102502    0.7992682174    0.1250377454
C359       C    0.4146252188    0.7964250091    0.1278905799
C360       C    0.4320622469    0.8165262505    0.1508329615
C361       C    0.4145843064    0.8394707000    0.1709225086
C362       C    0.3796693378    0.8423139082    0.1680696741
C363       C    0.3622323097    0.8222126669    0.1451272925
H364       H    0.4275671591    0.7794383236    0.1130178716
H365       H    0.4274922363    0.8543508397    0.1879058300
H366       H    0.3363824395    0.8243192128    0.1430166794
C367       C    0.6204006811    0.1250968581    0.1681499771
C368       C    0.5854814462    0.1279324400    0.1709834746
C369       C    0.5680218692    0.1508775393    0.1508723923
C370       C    0.5854815271    0.1709870566    0.1279278124
C371       C    0.6204007620    0.1681514747    0.1250943149
C372       C    0.6378603390    0.1452063755    0.1452053973
H373       H    0.5725530408    0.1130449460    0.1879702559
H374       H    0.5725569051    0.1879723898    0.1130403878
H375       H    0.6637133664    0.1431085363    0.1431060406
C376       C    0.6205533185    0.7994322457    0.8424910669
C377       C    0.6380080351    0.8223896933    0.8223936778
C378       C    0.6205521896    0.8424866084    0.7994351508
C379       C    0.5856416274    0.8396260759    0.7965740129
C380       C    0.5681869107    0.8166686283    0.8166714019
C381       C    0.5856427563    0.7965717132    0.8396299289
H382       H    0.6638546414    0.8245090657    0.8245104378
H383       H    0.5727197677    0.8545030130    0.7795787396
H384       H    0.5727180096    0.7795754037    0.8545084423
C975       C    0.8620638529    0.5012604737    0.1597346016
C976       C    0.8329545985    0.5188721744    0.1508914038
C977       C    0.8038248038    0.5013347645    0.1420265184
C978       C    0.8038042637    0.4661856538    0.1420048306
C979       C    0.8329135182    0.4485739531    0.1508480284
C980       C    0.8620433128    0.4661113630    0.1597129138
H981       H    0.8836274671    0.5142427123    0.1662969194
H982       H    0.7822773152    0.5143703278    0.1354805343
H983       H    0.7822406495    0.4532034153    0.1354425128
H984       H    0.8835908014    0.4530757998    0.1662588979
C965       C    0.1406324746    0.5013074100    0.8313515500
C966       C    0.1672647035    0.5188679694    0.8165890342
C967       C    0.1938732282    0.5012794185    0.8018077465
C968       C    0.1938495239    0.4661303082    0.8017889746
C969       C    0.1672172950    0.4485697488    0.8165514904
C970       C    0.1406087703    0.4661582997    0.8313327781
H971       H    0.1209352550    0.5143275061    0.8422935422
H972       H    0.2135871514    0.5142771255    0.7908801169
H973       H    0.2135467435    0.4531102121    0.7908469824
H974       H    0.1208948470    0.4531605927    0.8422604077
C955       C    0.8629531761    0.4661851208    0.8218499325
C956       C    0.8329577554    0.4486515319    0.8165881837
C957       C    0.8029903800    0.4662670383    0.8113548395
C958       C    0.8030184254    0.5014161337    0.8113832441
C959       C    0.8330138461    0.5189497226    0.8166449929
C960       C    0.8629812215    0.5013342162    0.8218783371
H961       H    0.8851368176    0.4531450706    0.8257239664
H962       H    0.7807869279    0.4532892956    0.8074599461
H963       H    0.7808347839    0.5144561839    0.8075092102
H964       H    0.8851846737    0.5143119589    0.8257732305
C945       C    0.1952676199    0.4660467866    0.1390771281
C946       C    0.1671633192    0.4484893516    0.1507970561
C947       C    0.1390834581    0.4660810208    0.1625411153
C948       C    0.1391078977    0.5012301250    0.1625652464
C949       C    0.1672121984    0.5187875600    0.1508453184
C950       C    0.1952920595    0.5011958908    0.1391012593
H951       H    0.2160540105    0.4530243821    0.1303834739
H952       H    0.1182798659    0.4530856265    0.1712165360
H953       H    0.1183215070    0.5142525294    0.1712589006
H954       H    0.2160956516    0.5141912851    0.1304258385
C935       C    0.5176249669    0.1644878375    0.8438058805
C936       C    0.5352412512    0.1508944932    0.8165924108
C937       C    0.5177090974    0.1372823088    0.7893550611
C938       C    0.4825606594    0.1372634687    0.7893311812
C939       C    0.4649443751    0.1508568130    0.8165446509
C940       C    0.4824765289    0.1644689975    0.8437820005
H941       H    0.5306033145    0.1745643897    0.8639685939
H942       H    0.5307480536    0.1272201328    0.7692108856
H943       H    0.4695823118    0.1271869166    0.7691684678
H944       H    0.4694375727    0.1745311734    0.8639261761
C925       C    0.5177010191    0.7950683873    0.1293558983
C926       C    0.5352327688    0.8165963485    0.1508890292
C927       C    0.5176160806    0.8381004285    0.1724030587
C928       C    0.4824676426    0.8380765473    0.1723839574
C929       C    0.4649358930    0.8165485861    0.1508508265
C930       C    0.4825525812    0.7950445061    0.1293367970
H931       H    0.5307419442    0.7791497826    0.1134299284
H932       H    0.5305924618    0.8540360294    0.1883424865
H933       H    0.4694267176    0.8539951519    0.1883099273
H934       H    0.4695761999    0.7791089052    0.1133973692
C915       C    0.4825623031    0.8470444674    0.8166065790
C916       C    0.4650218088    0.8165915306    0.8165932856
C917       C    0.4826297419    0.7861648610    0.8166066065
C918       C    0.5177781694    0.7861911282    0.8166332208
C919       C    0.5353186637    0.8166440651    0.8166465142
C920       C    0.5177107305    0.8470707347    0.8166331933
H921       H    0.4695278591    0.8695681059    0.8165967181
H922       H    0.4696468876    0.7636227424    0.8165967672
H923       H    0.5308126134    0.7636674897    0.8166430817
H924       H    0.5306935849    0.8696128532    0.8166430326
C905       C    0.4824074722    0.1411741031    0.1796825279
C906       C    0.4648557115    0.1507973154    0.1507919063
C907       C    0.4824523762    0.1604478598    0.1219287060
C908       C    0.5176008015    0.1604751918    0.1219561273
C909       C    0.5351525621    0.1508519795    0.1508467490
C910       C    0.5175558975    0.1412014351    0.1797099493
H911       H    0.4693813698    0.1340301936    0.2010487931
H912       H    0.4694611822    0.1675712327    0.1005430571
H913       H    0.5306269039    0.1676191013    0.1005898622
H914       H    0.5305470915    0.1340780622    0.2010955982
C895       C    0.1818846556    0.7898826729    0.5013053888
C896       C    0.1672578419    0.8165890247    0.5188667833
C897       C    0.1526102298    0.8432724776    0.5012800729
C898       C    0.1525894316    0.8432495787    0.4661319680
C899       C    0.1672162453    0.8165432268    0.4485705736
C900       C    0.1818638574    0.7898597739    0.4661572840
H901       H    0.1927276931    0.7701299870    0.5143241225
H902       H    0.1417830507    0.8630412688    0.5142783980
H903       H    0.1417463941    0.8630022646    0.4531132343
H904       H    0.1926910365    0.7700909828    0.4531589588
C885       C    0.8422794792    0.1219013061    0.5013127909
C886       C    0.8329631269    0.1508895208    0.5188705546
C887       C    0.8236223763    0.1798584911    0.5012802135
C888       C    0.8235979779    0.1798392467    0.4661321088
C889       C    0.8329143302    0.1508510320    0.4485743452
C890       C    0.8422550809    0.1218820617    0.4661646863
H891       H    0.8491940608    0.1004567436    0.5143342123
H892       H    0.8167261498    0.2013163814    0.5142758510
H893       H    0.8166833963    0.2012838092    0.4531106875
H894       H    0.8491513073    0.1004241714    0.4531690487
C875       C    0.8025333864    0.8165286555    0.4662643276
C876       C    0.8329592219    0.8165913076    0.4486547591
C877       C    0.8634115848    0.8166796562    0.4661932864
C878       C    0.8634381121    0.8167053526    0.5013413821
C879       C    0.8330122766    0.8166427005    0.5189509506
C880       C    0.8025599137    0.8165543520    0.5014124233
H881       H    0.7799907281    0.8164632546    0.4532812619
H882       H    0.8859336438    0.8167260338    0.4531593015
H883       H    0.8859807704    0.8167707535    0.5143244478
H884       H    0.7800378547    0.8165079743    0.5144464082
C865       C    0.1852786781    0.1752726804    0.4660129349
C866       C    0.1671605690    0.1507949594    0.4484886975
C867       C    0.1490704122    0.1263450627    0.4661125518
C868       C    0.1490983645    0.1263728871    0.5012606434
C869       C    0.1672164736    0.1508506082    0.5187848808
C870       C    0.1853066304    0.1753005048    0.5011610265
H871       H    0.1986700929    0.1933719546    0.4529667051
H872       H    0.1356588798    0.1082259668    0.4531417314
H873       H    0.1357069498    0.1082736129    0.5143068732
H874       H    0.1987181629    0.1934196008    0.5141318469
C855       C    0.8041900752    0.6571658834    1.0496161177
C856       C    0.7692592909    0.6610837606    1.0495370206
C857       C    0.7498251418    0.6460164797    1.0746592847
C858       C    0.7653217769    0.6270313215    1.0998606458
C859       C    0.8002525611    0.6231134442    1.0999397429
C860       C    0.8196867103    0.6381807251    1.0748174788
H861       H    0.8185763934    0.6683195848    1.0310191170
H862       H    0.7239688844    0.6489160017    1.0746015323
H863       H    0.7509354587    0.6158776200    1.1184576465
H864       H    0.8455429677    0.6352812031    1.0748752311
C845       C    0.7555869543    0.6302308662    0.9083946870
C846       C    0.7692897980    0.6611063482    0.9180765281
C847       C    0.7985001477    0.6730055706    0.9025591308
C848       C    0.8140076537    0.6540293109    0.8773598925
C849       C    0.8003048101    0.6231538289    0.8676780515
C850       C    0.7710944604    0.6112546065    0.8831954487
H851       H    0.7339637085    0.6214223509    0.9198815915
H852       H    0.8086438682    0.6958598692    0.9097251041
H853       H    0.8356308996    0.6628378262    0.8658729881
H854       H    0.7609507398    0.5884003079    0.8760294755
C835       C    0.6922712246    0.7770859624    0.8972687748
C836       C    0.6774725561    0.7529218776    0.9180746212
C837       C    0.6436973414    0.7442640819    0.9136813456
C838       C    0.6247207951    0.7597703710    0.8884822236
C839       C    0.6395194635    0.7839344558    0.8676763771
C840       C    0.6732946783    0.7925922515    0.8720696527
H841       H    0.7172736562    0.7834949800    0.9005209398
H842       H    0.6327423507    0.7263776382    0.9290816202
H843       H    0.5997183634    0.7533613533    0.8852300585
H844       H    0.6842496689    0.8104786952    0.8566693781
C825       C    0.6885424702    0.7521320864    1.0828728565
C826       C    0.6774467332    0.7528969580    1.0495347946
C827       C    0.6473647746    0.7691606950    1.0413963881
C828       C    0.6283785529    0.7846595603    1.0665960434
C829       C    0.6394742899    0.7838946887    1.0999341053
C830       C    0.6695562486    0.7676309517    1.1080725118
H831       H    0.7108109331    0.7400926967    1.0888973912
H832       H    0.6391507975    0.7697273650    1.0167194156
H833       H    0.6061100900    0.7966989500    1.0605715087
H834       H    0.6777702257    0.7670642817    1.1327494843
C815       C    0.2502007640    0.6478155569    0.8915971640
C816       C    0.2310628931    0.6609695579    0.9179874412
C817       C    0.1964193088    0.6551672544    0.9191833420
C818       C    0.1809135954    0.6362109499    0.8939889656
C819       C    0.2000514662    0.6230569489    0.8675986885
C820       C    0.2346950505    0.6288592524    0.8664027877
H821       H    0.2758460147    0.6521107686    0.8907118868
H822       H    0.1822524285    0.6649036155    0.9387173691
H823       H    0.1552683447    0.6319157382    0.8948742429
H824       H    0.2488619309    0.6191228913    0.8468687606
C805       C    0.3346408387    0.7855373795    1.0448846243
C806       C    0.3228390783    0.7527475592    1.0494528528
C807       C    0.3299935930    0.7354639850    1.0792150058
C808       C    0.3489498680    0.7509702312    1.1044089303
C809       C    0.3607516284    0.7837600515    1.0998407019
C810       C    0.3535971137    0.8010436257    1.0700785489
H811       H    0.3293446395    0.7983317136    1.0228529007
H812       H    0.3212581983    0.7111925295    1.0825973342
H813       H    0.3542460672    0.7381758971    1.1264406540
H814       H    0.3623325083    0.8253150812    1.0666962205
C795       C    0.2293602418    0.6259525231    1.0466181083
C796       C    0.2310413197    0.6609431891    1.0494755600
C797       C    0.2172101239    0.6769632135    1.0775392211
C798       C    0.2016978502    0.6579925719    1.1027454305
C799       C    0.2000167723    0.6230019058    1.0998879789
C800       C    0.2138479681    0.6069818814    1.0718243178
H801       H    0.2395989193    0.6140935440    1.0258437098
H802       H    0.2184540140    0.7028636872    1.0796551848
H803       H    0.1914591727    0.6698515510    1.1235198290
H804       H    0.2126040780    0.5810814077    1.0697083541
C785       C    0.3224497325    0.7399497461    0.8852426824
C786       C    0.3228673383    0.7527653414    0.9179635300
C787       C    0.3422554889    0.7810915464    0.9254771054
C788       C    0.3612260336    0.7966021561    0.9002698331
C789       C    0.3608084277    0.7837865608    0.8675489855
C790       C    0.3414202772    0.7554603559    0.8600354101
H791       H    0.3080974652    0.7189809970    0.8796806851
H792       H    0.3425652128    0.7905785009    0.9496971983
H793       H    0.3755783009    0.8175709052    0.9058318305
H794       H    0.3411105533    0.7459734013    0.8358153172
C775       C    0.6441312258    0.2247271139    0.9122958198
C776       C    0.6773348697    0.2146950202    0.9179910669
C777       C    0.6915831310    0.1891539821    0.8984933795
C778       C    0.6726277484    0.1736450376    0.8733004450
C779       C    0.6394241044    0.1836771313    0.8676051979
C780       C    0.6251758431    0.2092181694    0.8871028853
H781       H    0.6335838115    0.2436341161    0.9267291728
H782       H    0.7161608012    0.1817274537    0.9027083641
H783       H    0.6831751626    0.1547380353    0.8588670920
H784       H    0.6005981730    0.2166446978    0.8828879007
C765       C    0.7774911139    0.2914946048    0.8872978594
C766       C    0.7691284166    0.3064997782    0.9179615704
C767       C    0.7762762598    0.3404737020    0.9234165814
C768       C    0.7917868001    0.3594424524    0.8982078813
C769       C    0.8001494974    0.3444372790    0.8675441703
C770       C    0.7930016542    0.3104633552    0.8620891594
H771       H    0.7721998533    0.2663450768    0.8832597345
H772       H    0.7700864472    0.3515815532    0.9461139239
H773       H    0.7970780606    0.3845919804    0.9022460063
H774       H    0.7991914668    0.2993555040    0.8393918168
C755       C    0.7742174120    0.2925281657    1.0813099989
C756       C    0.7691131538    0.3064769494    1.0494502623
C757       C    0.7795168063    0.3393815881    1.0427838870
C758       C    0.7950247171    0.3583374432    1.0679772483
C759       C    0.8001289753    0.3443886595    1.0998369850
C760       C    0.7897253228    0.3114840208    1.1065033603
H761       H    0.7665160069    0.2681701864    1.0862448481
H762       H    0.7757389818    0.3497074695    1.0192012122
H763       H    0.8027261222    0.3826954225    1.0630423991
H764       H    0.7935031473    0.3011581393    1.1300860351
C745       C    0.6875565353    0.2168169374    1.0830254160
C746       C    0.6773077980    0.2146817248    1.0494776122
C747       C    0.6480888175    0.1970354221    1.0411370119
C748       C    0.6291185743    0.1815243320    1.0663442155
C749       C    0.6393673116    0.1836595447    1.0998920193
C750       C    0.6685862921    0.2013058474    1.1082326196
H751       H    0.7091861702    0.2298797849    1.0891996266
H752       H    0.6405018139    0.1954543868    1.0163047828
H753       H    0.6074889394    0.1684614846    1.0601700049
H754       H    0.6761732957    0.2028868826    1.1330648487
C735       C    0.1997284976    0.3214547316    1.0433428473
C736       C    0.2308833571    0.3063300344    1.0493689497
C737       C    0.2465335538    0.3101828529    1.0805950920
C738       C    0.2310288909    0.3291603686    1.1057951318
C739       C    0.1998740314    0.3442850658    1.0997690293
C740       C    0.1842238347    0.3404322473    1.0685428871
H741       H    0.1881432871    0.3186026452    1.0202273913
H742       H    0.2695947654    0.2989877278    1.0850565798
H743       H    0.2426141014    0.3320124550    1.1289105878
H744       H    0.1611626232    0.3516273724    1.0640813992
C725       C    0.3370071844    0.1829280710    0.9235812148
C726       C    0.3227259470    0.2145453030    0.9179015259
C727       C    0.3274318969    0.2306690403    0.8870196058
C728       C    0.3464190844    0.2151755456    0.8618173746
C729       C    0.3607003218    0.1835583136    0.8674970634
C730       C    0.3559943718    0.1674345763    0.8983789836
H731       H    0.3335235591    0.1709923175    0.9464418570
H732       H    0.3168611247    0.2540725133    0.8828145430
H733       H    0.3499027097    0.2271112991    0.8389567324
H734       H    0.3665651441    0.1440311033    0.9025840464
C715       C    0.1958425193    0.3074896250    0.9158196152
C716       C    0.2309101280    0.3063537076    0.9179078889
C717       C    0.2504805659    0.3242037734    0.8947957520
C718       C    0.2349833950    0.3431897566    0.8695953414
C719       C    0.1999157863    0.3443256740    0.8675070677
C720       C    0.1803453484    0.3264756082    0.8906192046
H721       H    0.1813553121    0.2942759399    0.9329285997
H722       H    0.2764381045    0.3233635363    0.8963407533
H723       H    0.2494706022    0.3564034417    0.8524863569
H724       H    0.1543878098    0.3273158453    0.8890742033
C705       C    0.3134023078    0.1828250398    1.0614009353
C706       C    0.3226989713    0.2145154885    1.0493636688
C707       C    0.3509729263    0.2307002891    1.0625253572
C708       C    0.3699502178    0.2151946410    1.0877243119
C709       C    0.3606535543    0.1835041923    1.0997615784
C710       C    0.3323795993    0.1673193917    1.0865998901
H711       H    0.2924722373    0.1708440834    1.0516578673
H712       H    0.3578551784    0.2541579588    1.0536158318
H713       H    0.3908802883    0.2271755974    1.0974673799
H714       H    0.3254973473    0.1438617220    1.0955094154
C695       C    0.6541952695    0.8995740640    0.7341924934
C696       C    0.6774694511    0.9180703219    0.7529192821
C697       C    0.6817675767    0.9113671810    0.7871543315
C698       C    0.6627915208    0.8861677821    0.8026625921
C699       C    0.6395173393    0.8676715242    0.7839358034
C700       C    0.6352192136    0.8743746652    0.7497007540
H701       H    0.6510135401    0.9045361294    0.7088496646
H702       H    0.6989951792    0.9250578332    0.8010169174
H703       H    0.6659732502    0.8812057167    0.8280054209
H704       H    0.6179916111    0.8606840130    0.7358381681
C685       C    0.7540389904    0.8865655087    0.6579418946
C686       C    0.7692856798    0.9180698854    0.6611029854
C687       C    0.8000403387    0.9243746061    0.6452884471
C688       C    0.8155483082    0.8991749502    0.6263128180
C689       C    0.8003016188    0.8676705735    0.6231517273
C690       C    0.7695469599    0.8613658528    0.6389662656
H691       H    0.7312725547    0.8818983778    0.6696487606
H692       H    0.8113268573    0.9476942333    0.6476277748
H693       H    0.8383147440    0.9038420811    0.6146059520
H694       H    0.7582604414    0.8380462256    0.6366269379
C675       C    0.6487670259    1.0622211603    0.7370203487
C676       C    0.6774481823    1.0495335588    0.7528916065
C677       C    0.6871453737    1.0620473069    0.7842622039
C678       C    0.6681614087    1.0872486564    0.7997615437
C679       C    0.6394802523    1.0999362579    0.7838902860
C680       C    0.6297830609    1.0874225098    0.7525196885
H681       H    0.6415885855    1.0529577364    0.7137979584
H682       H    0.7083753706    1.0526563854    0.7960110453
H683       H    0.6753398490    1.0965120803    0.8229839340
H684       H    0.6085530640    1.0968134313    0.7407708471
C665       C    0.8034777305    1.0562716532    0.6654277189
C666       C    0.7692611945    1.0495325912    0.6610782927
C667       C    0.7505444973    1.0679940936    0.6377440626
C668       C    0.7660443361    1.0931946579    0.6187592587
C669       C    0.8002608721    1.0999337200    0.6231086848
C670       C    0.8189775694    1.0814722176    0.6464429150
H671       H    0.8173329480    1.0426053462    0.6827011100
H672       H    0.7252169465    1.0630064481    0.6345238943
H673       H    0.7521891186    1.1068609649    0.6014858675
H674       H    0.8443051201    1.0864598631    0.6496630832
C655       C    0.6695603052    1.0471153657    0.1804874634
C656       C    0.6773015071    1.0494798804    0.2146867499
C657       C    0.6660745732    1.0770516406    0.2333728026
C658       C    0.6471064376    1.1022588862    0.2178595687
C659       C    0.6393652357    1.0998943715    0.1836602822
C660       C    0.6505921696    1.0723226112    0.1649742295
H661       H    0.6778711524    1.0267051016    0.1666549308
H662       H    0.6718042280    1.0788027186    0.2586875843
H663       H    0.6387955904    1.1226691503    0.2316921013
H664       H    0.6448625148    1.0705715333    0.1396594478
C645       C    0.7908686090    1.1061145928    0.3110701568
C646       C    0.8001215882    1.0998422702    0.3443927266
C647       C    0.7938658548    1.0683760213    0.3587603218
C648       C    0.7783571421    1.0431820950    0.3398053471
C649       C    0.7691041629    1.0494544176    0.3064827773
C650       C    0.7753598964    1.0809206665    0.2921151822
H651       H    0.7954994767    1.1294077901    0.3004344046
H652       H    0.8007146791    1.0637322745    0.3834260242
H653       H    0.7737262745    1.0198888977    0.3504410994
H654       H    0.7685110720    1.0855644133    0.2674494798
C635       C    0.6608204194    0.8878320403    0.1644805661
C636       C    0.6394144500    0.8676081146    0.1836768409
C637       C    0.6369641009    0.8725760157    0.2183845521
C638       C    0.6559197211    0.8977678426    0.2338959885
C639       C    0.6773256904    0.9179917683    0.2146997136
C640       C    0.6797760395    0.9130238672    0.1799920024
H641       H    0.6626343142    0.8841545031    0.1387878448
H642       H    0.6211194009    0.8576064950    0.2325946650
H643       H    0.6541058262    0.9014453798    0.2595887098
H644       H    0.6956207395    0.9279933879    0.1657818896
C625       C    0.7835884131    0.8902530349    0.2904321460
C626       C    0.7691204028    0.9179643237    0.3065052923
C627       C    0.7701658484    0.9204686283    0.3415467071
C628       C    0.7856793042    0.8952616442    0.3605149755
C629       C    0.8001473145    0.8675503554    0.3444418292
C630       C    0.7991018689    0.8650460507    0.3094004144
H631       H    0.7828145118    0.8883991990    0.2644923974
H632       H    0.7594567118    0.9409805051    0.3534451018
H633       H    0.7864532055    0.8971154801    0.3864547241
H634       H    0.8098110055    0.8445341740    0.2975020197
C615       C    0.2379227281    1.0523669569    0.6265836976
C616       C    0.2310530354    1.0494799006    0.6609364587
C617       C    0.2086713120    1.0718000401    0.6763200671
C618       C    0.1931592813    1.0970072360    0.6573509144
C619       C    0.2000289741    1.0998942924    0.6229981533
C620       C    0.2224106975    1.0775741529    0.6076145449
H621       H    0.2544910169    1.0358442562    0.6151958316
H622       H    0.2035856815    1.0696637576    0.7017483457
H623       H    0.1765909926    1.1135299367    0.6687387804
H624       H    0.2274963280    1.0797104354    0.5821862663
C605       C    0.3101003239    1.0821357913    0.7550502057
C606       C    0.3228488975    1.0494575750    0.7527391640
C607       C    0.3545530602    1.0419737023    0.7659355109
C608       C    0.3735086494    1.0671680460    0.7814428996
C609       C    0.3607600758    1.0998462623    0.7837539413
C610       C    0.3290559130    1.1073301350    0.7705575944
H611       H    0.2866310086    1.0876758009    0.7452814814
H612       H    0.3639905124    1.0177851659    0.7642253037
H613       H    0.3969779646    1.0616280364    0.7912116239
H614       H    0.3196184608    1.1315186714    0.7722678016
C595       C    0.3568201038    0.9234582657    0.7599943855
C596       C    0.3228717106    0.9179650861    0.7527568074
C597       C    0.3078922020    0.8872648187    0.7610318038
C598       C    0.3268610867    0.8620577310    0.7765443783
C599       C    0.3608094799    0.8675509107    0.7837819565
C600       C    0.3757889885    0.8982511780    0.7755069600
H601       H    0.3679088310    0.9461844376    0.7538687388
H602       H    0.2827632479    0.8831978151    0.7556748361
H603       H    0.3157723595    0.8393315591    0.7826700251
H604       H    0.4009179426    0.9023181817    0.7808639277
C585       C    0.2350293722    0.9173226459    0.6260422023
C586       C    0.2310656242    0.9179892020    0.6609611081
C587       C    0.2115922790    0.8934627411    0.6769245548
C588       C    0.1960826820    0.8682697241    0.6579690959
C589       C    0.2000464300    0.8676031680    0.6230501901
C590       C    0.2195197751    0.8921296289    0.6070867434
H591       H    0.2494447056    0.9354785975    0.6142251054
H592       H    0.2086577106    0.8939553474    0.7027719100
H593       H    0.1816673486    0.8501137726    0.6697861928
H594       H    0.2224543436    0.8916370226    0.5812393883
C575       C    0.3575859158    0.9213749166    0.2117184232
C576       C    0.3227239797    0.9179037538    0.2145480156
C577       C    0.3068478607    0.8892306249    0.2018815373
C578       C    0.3258336778    0.8640286588    0.1863854667
C579       C    0.3606956140    0.8674998216    0.1835558743
C580       C    0.3765717330    0.8961729505    0.1962223525
H581       H    0.3693383676    0.9426004796    0.2210949071
H582       H    0.2810426771    0.8866603752    0.2039755907
H583       H    0.3140812261    0.8428030959    0.1770089828
H584       H    0.4023769166    0.8987432003    0.1941282992
C565       C    0.2496935127    0.8905043141    0.3178718255
C566       C    0.2309120095    0.9179015324    0.3063591626
C567       C    0.1966341621    0.9200965242    0.3138319510
C568       C    0.1811378179    0.8948942976    0.3328174024
C569       C    0.1999193211    0.8674970793    0.3443300653
C570       C    0.2341971685    0.8653020875    0.3368572769
H571       H    0.2750680231    0.8888794501    0.3123400211
H572       H    0.1827310753    0.9403759173    0.3053105554
H573       H    0.1557633075    0.8965191617    0.3383492068
H574       H    0.2481002553    0.8450226944    0.3453786725
C555       C    0.2102837599    1.0407615814    0.3334911747
C556       C    0.2308827214    1.0493663575    0.3063336378
C557       C    0.2359743906    1.0831701522    0.2981531288
C558       C    0.2204670982    1.1083691708    0.3171301567
C559       C    0.1998681367    1.0997643948    0.3442876936
C560       C    0.1947764675    1.0659606001    0.3524682026
H561       H    0.2065146022    1.0157379932    0.3395468762
H562       H    0.2512218298    1.0895404466    0.2780509576
H563       H    0.2242362559    1.1333927591    0.3110744552
H564       H    0.1795290283    1.0595903056    0.3725703738
C545       C    0.3544227377    1.0418890130    0.2013403503
C546       C    0.3227003846    1.0493684387    0.2145159874
C547       C    0.3099550255    1.0820470309    0.2121841354
C548       C    0.3289320197    1.1072461974    0.1966766463
C549       C    0.3606543729    1.0997667716    0.1835010092
C550       C    0.3733997319    1.0670881794    0.1858328612
H551       H    0.3638576139    1.0176983668    0.2030665264
H552       H    0.2864738491    1.0875843095    0.2219366214
H553       H    0.3194971436    1.1314368436    0.1949504702
H554       H    0.3968809084    1.0615509009    0.1760803752
C535       C   -0.0826411062    0.7845341199    0.6119551469
C536       C   -0.1159568572    0.7839314323    0.6231531488
C537       C   -0.1240730647    0.7678221852    0.6533270244
C538       C   -0.0988735212    0.7523156257    0.6723028982
C539       C   -0.0655577702    0.7529183133    0.6611048963
C540       C   -0.0574415627    0.7690275603    0.6309310206
H541       H   -0.0766330045    0.7964591469    0.5896186415
H542       H   -0.1487335221    0.7673755682    0.6616167006
H543       H   -0.1048816229    0.7403905987    0.6946394036
H544       H   -0.0327811053    0.7694741773    0.6226413445
C525       C   -0.0574503481    0.6309003284    0.7689823992
C526       C   -0.0655571713    0.6611034760    0.7529218204
C527       C   -0.0988634293    0.6723305877    0.7523692299
C528       C   -0.1240628642    0.6533545518    0.7678772181
C529       C   -0.1159560411    0.6231514042    0.7839377969
C530       C   -0.0826497830    0.6119242925    0.7844903874
H531       H   -0.0327950662    0.6225893496    0.7693914597
H532       H   -0.1048651251    0.6946872055    0.7404812291
H533       H   -0.1487181461    0.6616655306    0.7674681576
H534       H   -0.0766480873    0.5895676747    0.7963783882
C515       C    0.0950759377    0.6081383278    0.7602316739
C516       C    0.1163115158    0.6231114489    0.7838825682
C517       C    0.1123448120    0.6570689508    0.7920372003
C518       C    0.0871425301    0.6760533314    0.7765409382
C519       C    0.0659069520    0.6610802103    0.7528900439
C520       C    0.0698736558    0.6271227084    0.7447354118
H521       H    0.0980123288    0.5830009563    0.7541951281
H522       H    0.1280631859    0.6681530765    0.8095437663
H523       H    0.0842061390    0.7011907029    0.7825774840
H524       H    0.0541552819    0.6160385827    0.7272288458
C505       C    0.0592248879    0.7830427624    0.6442783973
C506       C    0.0659033552    0.7528921909    0.6610781425
C507       C    0.0977827405    0.7382395325    0.6588922207
C508       C    0.1229836586    0.7537374457    0.6399065537
C509       C    0.1163051913    0.7838880172    0.6231068085
C510       C    0.0844258060    0.7985406756    0.6252927303
H511       H    0.0356258625    0.7938895355    0.6458965471
H512       H    0.1027271271    0.7159217229    0.6713272632
H513       H    0.1465826841    0.7428906726    0.6382884039
H514       H    0.0794814194    0.8208584852    0.6128576878
C495       C    0.1067868994    0.1701383088    0.6540365293
C496       C    0.1162618296    0.1836583853    0.6229995803
C497       C    0.1005294883    0.2126888803    0.6109332627
C498       C    0.0753222167    0.2281992989    0.6299038940
C499       C    0.0658472865    0.2146792225    0.6609408429
C500       C    0.0815796278    0.1856487274    0.6730071606
H501       H    0.1184329184    0.1486482021    0.6629687385
H502       H    0.1075423000    0.2226973116    0.5879594415
H503       H    0.0636761977    0.2496894057    0.6209716848
H504       H    0.0745668161    0.1756402961    0.6959809817
C485       C    0.0835652471    0.2931456102    0.7800049447
C486       C    0.0658184708    0.3064725748    0.7527483645
C487       C    0.0732645020    0.3387551120    0.7410012475
C488       C    0.0984573096    0.3577106846    0.7565107107
C489       C    0.1162040859    0.3443837199    0.7837672909
C490       C    0.1087580546    0.3121011827    0.7955144079
H491       H    0.0780532499    0.2692481476    0.7887008625
H492       H    0.0601286369    0.3486207055    0.7208256519
H493       H    0.1039693067    0.3816081472    0.7478147929
H494       H    0.1218939197    0.3022355892    0.8156900035
C475       C   -0.0722098665    0.3392771504    0.7418756219
C476       C   -0.0656689822    0.3064961984    0.7527592944
C477       C   -0.0843364046    0.2926848824    0.7791530172
C478       C   -0.1095447114    0.3116545185    0.7946630676
C479       C   -0.1160855957    0.3444354706    0.7837793951
C480       C   -0.0974181732    0.3582467865    0.7573856723
H481       H   -0.0583911252    0.3495011115    0.7223374115
H482       H   -0.0794954561    0.2684201011    0.7872099082
H483       H   -0.1233634527    0.3014305574    0.8142012780
H484       H   -0.1022591218    0.3825115678    0.7493287813
C465       C   -0.0974256187    0.2093597728    0.6749985892
C466       C   -0.0656397499    0.2146918789    0.6609656853
C467       C   -0.0590460834    0.2045147414    0.6279765044
C468       C   -0.0842382858    0.1890054977    0.6090202273
C469       C   -0.1160241547    0.1836733917    0.6230531312
C470       C   -0.1226178211    0.1938505292    0.6560423121
H471       H   -0.1023066446    0.2168934980    0.6994191517
H472       H   -0.0355180875    0.2084612253    0.6175883548
H473       H   -0.0793572600    0.1814717726    0.5845996648
H474       H   -0.1461458170    0.1899040453    0.6664304617
C455       C   -0.0974405921    0.6749956370    0.2093847546
C456       C   -0.0656486592    0.6609687414    0.2146948608
C457       C   -0.0590502579    0.6279862490    0.2044967087
C458       C   -0.0842437894    0.6090306523    0.1889884505
C459       C   -0.1160357223    0.6230575479    0.1836783443
C460       C   -0.1226341236    0.6560400403    0.1938764964
H461       H   -0.1023251229    0.6994112483    0.2169340360
H462       H   -0.0355177733    0.6176025469    0.2084269076
H463       H   -0.0793592586    0.5846150410    0.1814391691
H464       H   -0.1461666082    0.6664237424    0.1899462974
C445       C    0.0897608329    0.7730222528    0.2906300113
C446       C    0.0658163640    0.7527442851    0.3064753056
C447       C    0.0670660279    0.7479727554    0.3412766081
C448       C    0.0922601606    0.7634791933    0.3602326163
C449       C    0.1162046295    0.7837571610    0.3443873220
C450       C    0.1149549656    0.7885286907    0.3095860195
H451       H    0.0888357570    0.7765544242    0.2648680082
H452       H    0.0493424567    0.7329629248    0.3530063400
H453       H    0.0931852365    0.7599470219    0.3859946194
H454       H    0.1326785368    0.8035385213    0.2978562876
C435       C    0.0636897297    0.6535625371    0.1803841573
C436       C    0.0658386865    0.6609421892    0.2146778171
C437       C    0.0931941800    0.6493520148    0.2334587839
C438       C    0.1184007167    0.6303821884    0.2179460909
C439       C    0.1162517599    0.6230025363    0.1836524310
C440       C    0.0888962664    0.6345927106    0.1648714642
H441       H    0.0434395591    0.6621422765    0.1664813636
H442       H    0.0947856960    0.6548140403    0.2588434234
H443       H    0.1386508873    0.6218024490    0.2318488845
H444       H    0.0873047504    0.6291306852    0.1394868247
C425       C   -0.0758704312    0.7855006380    0.2987524324
C426       C   -0.0656719468    0.7527623707    0.3065003941
C427       C   -0.0806804548    0.7355358033    0.3332183103
C428       C   -0.1058874470    0.7510475032    0.3521882649
C429       C   -0.1160859313    0.7837857706    0.3444403033
C430       C   -0.1010774234    0.8010123380    0.3177223870
H431       H   -0.0647602370    0.7982527724    0.2789742347
H432       H   -0.0731320479    0.7113025090    0.3389541695
H433       H   -0.1169976412    0.7382953689    0.3719664626
H434       H   -0.1086258303    0.8252456323    0.3119865278
C415       C   -0.0954447983    0.2318806567    0.3136116207
C416       C   -0.0657321772    0.2145473136    0.3063589875
C417       C   -0.0612211364    0.1817181827    0.3180928781
C418       C   -0.0864227166    0.1662223948    0.3370794018
C419       C   -0.1161353377    0.1835557379    0.3443320350
C420       C   -0.1206463785    0.2163848689    0.3325981444
H421       H   -0.0987841402    0.2561827406    0.3049254939
H422       H   -0.0392278171    0.1688870648    0.3127248761
H423       H   -0.0830833747    0.1419203109    0.3457655286
H424       H   -0.1426396978    0.2292159868    0.3379661464
C405       C    0.0939327171    0.3164295094    0.2328907026
C406       C    0.0657337203    0.3063334423    0.2145185827
C407       C    0.0627352991    0.3152141071    0.1806411832
C408       C    0.0879358746    0.3341908390    0.1651359035
C409       C    0.1161348713    0.3442869061    0.1835080234
C410       C    0.1191332926    0.3354062413    0.2173854230
H411       H    0.0961523276    0.3098555107    0.2579687777
H412       H    0.0418624070    0.3077413151    0.1670411332
H413       H    0.0857162640    0.3407648376    0.1400578285
H414       H    0.1400061847    0.3428790333    0.2309854730
C395       C   -0.0991426938    0.2955255064    0.2157533427
C396       C   -0.0657307375    0.3063592724    0.2145445121
C397       C   -0.0575194912    0.3361788134    0.1978385703
C398       C   -0.0827202013    0.3551645885    0.1823414590
C399       C   -0.1161321576    0.3443308225    0.1835502896
C400       C   -0.1243434039    0.3145112814    0.2002562315
H401       H   -0.1052211489    0.2734513006    0.2281200788
H402       H   -0.0327878200    0.3441988722    0.1969432695
H403       H   -0.0766417463    0.3772387942    0.1699747229
H404       H   -0.1490750751    0.3064912226    0.2011515323
C385       C    0.0868290871    0.1949502221    0.3599845605
C386       C    0.1161285201    0.1835032557    0.3442873137
C387       C    0.1202290283    0.1875629758    0.3096134753
C388       C    0.0950301035    0.2030696624    0.2906368837
C389       C    0.0657306705    0.2145166287    0.3063341306
C390       C    0.0616301623    0.2104569086    0.3410079689
H391       H    0.0837936459    0.1919449747    0.3856522071
H392       H    0.1419164942    0.1790901005    0.2979933317
H393       H    0.0980655446    0.2060749098    0.2649692371
H394       H    0.0399426964    0.2189297839    0.3526281126
loop_
_geom_bond_atom_site_label_1
_geom_bond_atom_site_label_2
_geom_bond_distance
_geom_bond_site_symmetry_2
_ccdc_geom_bond_type
C898       C899 1.540       .   A
C897       C898 1.540       .   A
C898       H903 1.140       .   S
C899       C900 1.540       .   A
C899       C299 1.440       .   S
C885       C890 1.540       .   A
C890       H894 1.140       .   S
C889       C890 1.540       .   A
C896       C198 1.440       .   S
C896       C897 1.540       .   A
C895       C896 1.540       .   A
C897       H902 1.140       .   S
C895       C900 1.540       .   A
C895       H901 1.140       .   S
C510       H514 1.140       .   S
C507       H512 1.140       .   S
C508       H513 1.140       .   S
C505       H511 1.140       .   S
C885       C886 1.540       .   A
C885       H891 1.140       .   S
O29         C39 1.250       .   A
O29        Cu37 1.951       .   S
C690       H694 1.140       .   S
O22        Cu24 1.951       .   S
O22         C25 1.250       .   A
O20        Cu24 1.951       .   S
O20         C27 1.251       .   A
O21        Cu24 1.951       .   S
O21         C26 1.250       .   A
C555       C560 1.540       .   A
C560       H564 1.140       .   S
C559       C560 1.540       .   A
C886       C887 1.540       .   A
C886       C191 1.440       .   S
C566        C68 1.539       .   S
C566       C567 1.540       .   A
C565       C566 1.540       .   A
O48        Cu52 1.951       .   S
O49        Cu52 1.951       .   S
O50        Cu52 1.951       .   S
Cu51       Cu52 2.630       .   S
O47        Cu52 1.951       .   S
O43        Cu51 1.951       .   S
O44        Cu51 1.951       .   S
O45        Cu51 1.951       .   S
O46        Cu51 1.951       .   S
C565       C570 1.540       .   A
C565       H571 1.140       .   S
C242       C243 1.540       .   A
C243       C946 1.440       .   S
C243       C244 1.540       .   A
C241       C242 1.540       .   A
C242       H247 1.140       .   S
C241       C739 1.539   1_554   S
C241       C246 1.540       .   A
C569       C297 1.539       .   S
C568       C569 1.540       .   A
C569       C570 1.540       .   A
C246       H249 1.140       .   S
C245       C246 1.540       .   A
C245       C409 1.539       .   S
C244       C245 1.540       .   A
C244       H248 1.140       .   S
C966       C967 1.540       .   A
C966       C263 1.440       .   S
C965       C966 1.540       .   A
C967       H972 1.140       .   S
C967       C968 1.540       .   A
C965       C970 1.540       .   A
C965       H971 1.140       .   S
C925       H931 1.140       .   S
C959       C960 1.540       .   A
C955       C960 1.540       .   A
C960       H964 1.140       .   S
C980       H984 1.140       .   S
C830       H834 1.140       .   S
C825       H831 1.140       .   S
O144      Cu149 1.951       .   S
Cu149     Cu150 2.630       .   S
O141      Cu149 1.951       .   S
O142      Cu149 1.951       .   S
O143      Cu149 1.951       .   S
C968       H973 1.140       .   S
C968       C969 1.540       .   A
C969       C970 1.540       .   A
C969       C315 1.440       .   S
C809       C358 1.540   1_556   S
C809       C810 1.540       .   A
C808       C809 1.540       .   A
C808       H813 1.140       .   S
C807       C808 1.540       .   A
C805       C810 1.540       .   A
C805       C806 1.540       .   A
C805       H811 1.140       .   S
C806       C807 1.540       .   A
C807       H812 1.140       .   S
C153       C806 1.540       .   S
C795       C800 1.540       .   A
C800       H804 1.140       .   S
C799       C800 1.540       .   A
C457       H462 1.140       .   S
C215       H220 1.140       .   S
C345       H348 1.140       .   S
C738       C739 1.540       .   A
C739       C740 1.540       .   A
C460       H464 1.140       .   S
C217       H221 1.140       .   S
C889       C306 1.440       .   S
C888       C889 1.540       .   A
C737       C738 1.540       .   A
C738       H743 1.140       .   S
C343       H347 1.140       .   S
C219       H222 1.140       .   S
C888       H893 1.140       .   S
C887       C888 1.540       .   A
C935       H941 1.140       .   S
O59         C69 1.250       .   A
O59        Cu65 1.951       .   S
O58         C68 1.250       .   A
O58        Cu65 1.951       .   S
C940       H944 1.140       .   S
C736       C737 1.540       .   A
C735       C736 1.540       .   A
C736       C124 1.539       .   S
O50         C53 1.250       .   A
O57         C67 1.250       .   A
O57        Cu65 1.951       .   S
C735       H741 1.140       .   S
C735       C740 1.540       .   A
C765       C770 1.540       .   A
C765       H771 1.140       .   S
C765       C766 1.540       .   A
C766       C140 1.540       .   S
C766       C767 1.540       .   A
C475       H481 1.140       .   S
C767       C768 1.540       .   A
C767       H772 1.140       .   S
O162      Cu164 1.951       .   S
O162       C165 1.250       .   A
O160       C167 1.251       .   A
O160      Cu164 1.951       .   S
O161       C166 1.250       .   A
O161      Cu164 1.951       .   S
C655       C660 1.540       .   A
C660       H664 1.140       .   S
C659       C660 1.540       .   A
C747       C748 1.540       .   A
C748       H753 1.140       .   S
C748       C749 1.540       .   A
C769       C770 1.540       .   A
C768       C769 1.540       .   A
C769       C252 1.540       .   S
C746       C139 1.540       .   S
C746       C747 1.540       .   A
C745       C746 1.540       .   A
C747       H752 1.140       .   S
C201       H204 1.140       .   S
C745       C750 1.540       .   A
C745       H751 1.140       .   S
C197       H202 1.140       .   S
C199       H203 1.140       .   S
C740       H744 1.140       .   S
C528       H533 1.140       .   S
C485       H491 1.140       .   S
C485       C490 1.540       .   A
C485       C486 1.540       .   A
C760       H764 1.140       .   S
O30         C40 1.250       .   A
O35         C40 1.250       .   A
C40        C486 1.540       .   S
O31         C41 1.250       .   A
O34         C41 1.251       .   A
C41        C499 1.540       .   S
O33         C42 1.250       .   A
O32         C42 1.250       .   A
C42        C476 1.540       .   S
C757       H762 1.140       .   S
C640       H644 1.140       .   S
C637       H642 1.140       .   S
C638       H643 1.140       .   S
C500       H504 1.140       .   S
C635       H641 1.140       .   S
O75        Cu80 1.951       .   S
O77        Cu80 1.951       .   S
O76        Cu80 1.951       .   S
Cu79       Cu80 2.630       .   S
O78        Cu80 1.951       .   S
C589       C590 1.540       .   A
C590       H594 1.140       .   S
C585       C590 1.540       .   A
C597       H602 1.140       .   S
C597       C598 1.540       .   A
C596       C597 1.540       .   A
C83        C596 1.540       .   S
C595       C596 1.540       .   A
C595       C600 1.540       .   A
C595       H601 1.140       .   S
C214       C599 1.540       .   S
C599       C600 1.540       .   A
C598       C599 1.540       .   A
C598       H603 1.140       .   S
C610       H614 1.140       .   S
C609       C610 1.540       .   A
C605       C610 1.540       .   A
C289       H293 1.140       .   S
C287       H292 1.140       .   S
C291       H294 1.140       .   S
C758       C759 1.540       .   A
C758       H763 1.140       .   S
C757       C758 1.540       .   A
C698       H703 1.140       .   S
C698       C699 1.540       .   A
C697       C698 1.540       .   A
C699       C700 1.540       .   A
C699       C378 1.539       .   S
C349       C354 1.540       .   A
C349       C350 1.540       .   A
C609       C349 1.540   1_565   S
C341       C342 1.540       .   A
C799       C342 1.540   1_556   S
C342       C343 1.540       .   A
C343       C344 1.540       .   A
C340       C439 1.540       .   S
C340       C341 1.540       .   A
C340       C345 1.540       .   A
C341       H346 1.140       .   S
C695       C700 1.540       .   A
C695       H701 1.140       .   S
C695       C696 1.540       .   A
C344       C949 1.440       .   S
C344       C345 1.540       .   A
C488       H493 1.140       .   S
C487       H492 1.140       .   S
C519       C520 1.540       .   A
C515       C520 1.540       .   A
C520       H524 1.140       .   S
C490       H494 1.140       .   S
C685       H691 1.140       .   S
C618       C619 1.540       .   A
C618       H623 1.140       .   S
C617       C618 1.540       .   A
C435       H441 1.140       .   S
C688       H693 1.140       .   S
C619       C277 1.540   1_565   S
C619       C620 1.540       .   A
C687       H692 1.140       .   S
C526       C527 1.540       .   A
C525       C526 1.540       .   A
C54        C526 1.539       .   S
C527       H532 1.140       .   S
C527       C528 1.540       .   A
C525       C530 1.540       .   A
C525       H531 1.140       .   S
C797       H802 1.140       .   S
C289       C290 1.540       .   A
C288       C289 1.540       .   A
C287       C288 1.540       .   A
C288       C879 1.440       .   S
C286       C287 1.540       .   A
C286       C536 1.539   1_655   S
C286       C291 1.540       .   A
C787       H792 1.140       .   S
C788       H793 1.140       .   S
C790       H794 1.140       .   S
C277       C282 1.540       .   A
C282       H285 1.140       .   S
C281       C282 1.540       .   A
C280       C281 1.540       .   A
C281       C869 1.440       .   S
C280       H284 1.140       .   S
C279       C280 1.540       .   A
C449       C295 1.540       .   S
C449       C450 1.540       .   A
C448       C449 1.540       .   A
C448       H453 1.140       .   S
C447       C448 1.540       .   A
C665       H671 1.140       .   S
C181       H185 1.140       .   S
C179       H184 1.140       .   S
C446       C447 1.540       .   A
C447       H452 1.140       .   S
O7         Cu10 1.951       .   S
O6         Cu10 1.951       .   S
O5         Cu10 1.951       .   S
Cu9        Cu10 2.630       .   S
O8         Cu10 1.951       .   S
O102       C112 1.250       .   A
O103       C112 1.250       .   A
C112       C676 1.539       .   S
O101       C111 1.250       .   A
O104       C111 1.251       .   A
C686       C111 1.539       .   S
O100       C110 1.250       .   A
O105       C110 1.250       .   A
C696       C110 1.539       .   S
O103      Cu108 1.951       .   S
O104      Cu108 1.951       .   S
O105      Cu108 1.951       .   S
O106      Cu108 1.951       .   S
Cu107     Cu108 2.630       .   S
C835       C840 1.540       .   A
C840       H844 1.140       .   S
C839       C840 1.540       .   A
O88        Cu93 1.951       .   S
O88         C98 1.250       .   A
O89         C98 1.250       .   A
O89        Cu94 1.951       .   S
C847       C848 1.540       .   A
C847       H852 1.140       .   S
C846       C847 1.540       .   A
C845       C846 1.540       .   A
C167       C846 1.539       .   S
C849       C331 1.539       .   S
C849       C850 1.540       .   A
C848       C849 1.540       .   A
O85        Cu93 1.951       .   S
O85         C95 1.250       .   A
O86        Cu93 1.951       .   S
O86         C96 1.250       .   A
O87        Cu93 1.951       .   S
O87         C97 1.250       .   A
C970       H974 1.140       .   S
O100      Cu107 1.951       .   S
O101      Cu107 1.951       .   S
O102      Cu107 1.951       .   S
O99       Cu107 1.951       .   S
C628       C629 1.540       .   A
C628       H633 1.140       .   S
C627       C628 1.540       .   A
C696       C697 1.540       .   A
C420       H424 1.140       .   S
C417       H422 1.140       .   S
C418       H423 1.140       .   S
C415       H421 1.140       .   S
C381       H384 1.140       .   S
C379       H383 1.140       .   S
C377       H382 1.140       .   S
O17        Cu23 1.951       .   S
O17         C27 1.250       .   A
O16         C26 1.250       .   A
O16        Cu23 1.951       .   S
O15        Cu23 1.951       .   S
O15         C25 1.250       .   A
C975       H981 1.140       .   S
C978       H983 1.140       .   S
C977       H982 1.140       .   S
C540       H544 1.140       .   S
C535       H541 1.140       .   S
O19        Cu24 1.951       .   S
O19         C28 1.250       .   A
O18         C28 1.250       .   A
O18        Cu23 1.951       .   S
C232       C233 1.540       .   A
C232       C237 1.540       .   A
C232       C779 1.540       .   S
C233       H238 1.140       .   S
C233       C234 1.540       .   A
C236       C237 1.540       .   A
C235       C236 1.540       .   A
C936       C236 1.440       .   S
C237       H240 1.140       .   S
C234       C679 1.539   1_545   S
C234       C235 1.540       .   A
C235       H239 1.140       .   S
C825       C830 1.540       .   A
C829       C830 1.540       .   A
C567       C568 1.540       .   A
C567       H572 1.140       .   S
O127       C137 1.250       .   A
O127      Cu135 1.951       .   S
C795       H801 1.140       .   S
O120      Cu122 1.951       .   S
O120       C123 1.250       .   A
C798       H803 1.140       .   S
C857       C858 1.540       .   A
C858       H863 1.140       .   S
C858       C859 1.540       .   A
O128      Cu135 1.951       .   S
O128       C138 1.250       .   A
O129       C139 1.250       .   A
O129      Cu135 1.951       .   S
C178       C629 1.540       .   S
C629       C630 1.540       .   A
C835       C836 1.540       .   A
C835       H841 1.140       .   S
C166       C836 1.539       .   S
C836       C837 1.540       .   A
C837       C838 1.540       .   A
C837       H842 1.140       .   S
C939       C940 1.540       .   A
C938       C939 1.540       .   A
C939       C353 1.440       .   S
C937       C938 1.540       .   A
C938       H943 1.140       .   S
C620       H624 1.140       .   S
C615       C620 1.540       .   A
C935       C940 1.540       .   A
C935       C936 1.540       .   A
C936       C937 1.540       .   A
C937       H942 1.140       .   S
C838       H843 1.140       .   S
C838       C839 1.540       .   A
C930       H934 1.140       .   S
C929       C930 1.540       .   A
C925       C930 1.540       .   A
C627       H632 1.140       .   S
C626       C627 1.540       .   A
C98        C626 1.540       .   S
C625       C626 1.540       .   A
C327       H330 1.140       .   S
C332       H337 1.140       .   S
C625       H631 1.140       .   S
C625       C630 1.540       .   A
C334       H338 1.140       .   S
C336       H339 1.140       .   S
C445       C450 1.540       .   A
C450       H454 1.140       .   S
C839       C376 1.539       .   S
C865       H871 1.140       .   S
C868       H873 1.140       .   S
C867       H872 1.140       .   S
C870       H874 1.140       .   S
C578       H583 1.140       .   S
C457       C458 1.540       .   A
C456       C457 1.540       .   A
C715       H721 1.140       .   S
C718       H723 1.140       .   S
C717       H722 1.140       .   S
C720       H724 1.140       .   S
C715       C716 1.540       .   A
C715       C720 1.540       .   A
C568       H573 1.140       .   S
C253       H257 1.140       .   S
C251       H256 1.140       .   S
C828       H833 1.140       .   S
C497       C498 1.540       .   A
C498       H503 1.140       .   S
C498       C499 1.540       .   A
C499       C500 1.540       .   A
C496       C279 1.540       .   S
C496       C497 1.540       .   A
C495       C496 1.540       .   A
C497       H502 1.140       .   S
C827       H832 1.140       .   S
C719       C720 1.540       .   A
C719       C317 1.539       .   S
C718       C719 1.540       .   A
C255       H258 1.140       .   S
C489       C490 1.540       .   A
C459       C268 1.540   1_455   S
C459       C460 1.540       .   A
C458       C459 1.540       .   A
C658       H663 1.140       .   S
C657       C658 1.540       .   A
C658       C659 1.540       .   A
C659       C367 1.540   1_565   S
C308       C309 1.540       .   A
C307       C308 1.540       .   A
C419       C308 1.539   1_455   S
C304       C309 1.540       .   A
C309       H312 1.140       .   S
C306       C307 1.540       .   A
C305       C306 1.540       .   A
C307       H311 1.140       .   S
C304       C646 1.540   1_545   S
C304       C305 1.540       .   A
C305       H310 1.140       .   S
C645       C650 1.540       .   A
C650       H654 1.140       .   S
C649       C650 1.540       .   A
C295       C300 1.540       .   A
C300       H303 1.140       .   S
C299       C300 1.540       .   A
C489       C313 1.540       .   S
C488       C489 1.540       .   A
C605       H611 1.140       .   S
C608       H613 1.140       .   S
C607       H612 1.140       .   S
C587       H592 1.140       .   S
C588       H593 1.140       .   S
C585       H591 1.140       .   S
C708       H713 1.140       .   S
C39        C466 1.540       .   S
O36         C39 1.250       .   A
C750       H754 1.140       .   S
O146       C153 1.251       .   A
O143       C153 1.250       .   A
O147       C152 1.250       .   A
O142       C152 1.250       .   A
C152       C796 1.540       .   S
C151       C786 1.540       .   S
O148       C151 1.250       .   A
O141       C151 1.250       .   A
C405       H411 1.140       .   S
C405       C410 1.540       .   A
C405       C406 1.540       .   A
C845       C850 1.540       .   A
C850       H854 1.140       .   S
C407       C408 1.540       .   A
C407       H412 1.140       .   S
C406       C407 1.540       .   A
O144       C154 1.250       .   A
O145       C154 1.250       .   A
C154       C816 1.540       .   S
C409       C410 1.540       .   A
C408       C409 1.540       .   A
C408       H413 1.140       .   S
C180       C429 1.540   1_655   S
C428       C429 1.540       .   A
C429       C430 1.540       .   A
C390       H394 1.140       .   S
C385       C390 1.540       .   A
C389       C390 1.540       .   A
C395       C400 1.540       .   A
C395       H401 1.140       .   S
C395       C396 1.540       .   A
C397       C398 1.540       .   A
C397       H402 1.140       .   S
C396       C397 1.540       .   A
C12        C396 1.539       .   S
C399       C400 1.540       .   A
C324       C399 1.539   1_655   S
C398       C399 1.540       .   A
C645       H651 1.140       .   S
C645       C646 1.540       .   A
C517       H522 1.140       .   S
C458       H463 1.140       .   S
C495       H501 1.140       .   S
C949       C950 1.540       .   A
C950       H954 1.140       .   S
C945       C950 1.540       .   A
C277       C278 1.540       .   A
C785       H791 1.140       .   S
C415       C420 1.540       .   A
C419       C420 1.540       .   A
C272       C273 1.540       .   A
C859       C272 1.539   1_556   S
C271       C272 1.540       .   A
C268       C273 1.540       .   A
C273       H276 1.140       .   S
C976       C270 1.440       .   S
C269       C270 1.540       .   A
C270       C271 1.540       .   A
C271       H275 1.140       .   S
C278       H283 1.140       .   S
C278       C279 1.540       .   A
C475       C476 1.540       .   A
C476       C477 1.540       .   A
C477       C478 1.540       .   A
C477       H482 1.140       .   S
O62        Cu66 1.951       .   S
O63        Cu66 1.951       .   S
O61        Cu66 1.951       .   S
O64        Cu66 1.951       .   S
Cu65       Cu66 2.630       .   S
C577       C578 1.540       .   A
C578       C579 1.540       .   A
O60        Cu65 1.951       .   S
C575       C580 1.540       .   A
C575       H581 1.140       .   S
C575       C576 1.540       .   A
C577       H582 1.140       .   S
C576       C577 1.540       .   A
C69        C576 1.539       .   S
C478       C479 1.540       .   A
C478       H483 1.140       .   S
C570       H574 1.140       .   S
C957       H962 1.140       .   S
C957       C958 1.540       .   A
C956       C957 1.540       .   A
C920       H924 1.140       .   S
O130      Cu135 1.951       .   S
Cu135     Cu136 2.630       .   S
C917       H922 1.140       .   S
C977       C978 1.540       .   A
C976       C977 1.540       .   A
O131      Cu136 1.951       .   S
O133      Cu136 1.951       .   S
O132      Cu136 1.951       .   S
O134      Cu136 1.951       .   S
C978       C979 1.540       .   A
C979       C980 1.540       .   A
C979       C326 1.440       .   S
C878       C879 1.540       .   A
C878       H883 1.140       .   S
C877       C878 1.540       .   A
C879       C880 1.540       .   A
C370       H374 1.140       .   S
C372       H375 1.140       .   S
C368       H373 1.140       .   S
C869       C870 1.540       .   A
C865       C870 1.540       .   A
C875       C880 1.540       .   A
C875       C876 1.540       .   A
C875       H881 1.140       .   S
C182       C876 1.440       .   S
C876       C877 1.540       .   A
C877       H882 1.140       .   S
C470       H474 1.140       .   S
C608       C609 1.540       .   A
C607       C608 1.540       .   A
C465       H471 1.140       .   S
C468       H473 1.140       .   S
C467       H472 1.140       .   S
O48         C55 1.251       .   A
O49         C54 1.250       .   A
C887       H892 1.140       .   S
C880       H884 1.140       .   S
O43         C53 1.250       .   A
O44         C54 1.250       .   A
O45         C55 1.250       .   A
O46         C56 1.250       .   A
O47         C56 1.250       .   A
C547       H552 1.140       .   S
C548       H553 1.140       .   S
C697       H702 1.140       .   S
C759       C322 1.540   1_556   S
C759       C760 1.540       .   A
C905       C906 1.540       .   A
C905       H911 1.140       .   S
C905       C910 1.540       .   A
C906       C207 1.440       .   S
C906       C907 1.540       .   A
C907       H912 1.140       .   S
C907       C908 1.540       .   A
C900       H904 1.140       .   S
C615       H621 1.140       .   S
C615       C616 1.540       .   A
C84        C616 1.540       .   S
C616       C617 1.540       .   A
C617       H622 1.140       .   S
C206       H211 1.140       .   S
C749       C750 1.540       .   A
C210       H213 1.140       .   S
C208       H212 1.140       .   S
C908       H913 1.140       .   S
C908       C909 1.540       .   A
C369       C909 1.440       .   S
C909       C910 1.540       .   A
C756       C757 1.540       .   A
C756       C138 1.540       .   S
C755       C756 1.540       .   A
C819       C259 1.540       .   S
C819       C820 1.540       .   A
C818       C819 1.540       .   A
C550       H554 1.140       .   S
C716       C717 1.540       .   A
C717       C718 1.540       .   A
C455       H461 1.140       .   S
C455       C456 1.540       .   A
C455       C460 1.540       .   A
C126       C716 1.539       .   S
C725       C726 1.540       .   A
C725       H731 1.140       .   S
C725       C730 1.540       .   A
C726       C727 1.540       .   A
C123       C726 1.539       .   S
C709       C710 1.540       .   A
C710       H714 1.140       .   S
C705       C710 1.540       .   A
C705       H711 1.140       .   S
C707       H712 1.140       .   S
C727       H732 1.140       .   S
C727       C728 1.540       .   A
C556        C70 1.539       .   S
O60         C70 1.250       .   A
O61         C70 1.250       .   A
C648       H653 1.140       .   S
C647       H652 1.140       .   S
Cu93       Cu94 2.630       .   S
O92        Cu94 1.951       .   S
O91        Cu94 1.951       .   S
O90        Cu94 1.951       .   S
C410       H414 1.140       .   S
C353       C354 1.540       .   A
C354       H357 1.140       .   S
C495       C500 1.540       .   A
C351       C729 1.539       .   S
C351       C352 1.540       .   A
C350       C351 1.540       .   A
C350       H355 1.140       .   S
C352       C353 1.540       .   A
C352       H356 1.140       .   S
C260       H265 1.140       .   S
C262       H266 1.140       .   S
C264       H267 1.140       .   S
C359       C360 1.540       .   A
C358       C359 1.540       .   A
C359       H364 1.140       .   S
C358       C363 1.540       .   A
C689       C290 1.539       .   S
C688       C689 1.540       .   A
C689       C690 1.540       .   A
C687       C688 1.540       .   A
C679       C680 1.540       .   A
C680       H684 1.140       .   S
C675       C680 1.540       .   A
C686       C687 1.540       .   A
C685       C686 1.540       .   A
C685       C690 1.540       .   A
C678       H683 1.140       .   S
C918       H923 1.140       .   S
C728       C729 1.540       .   A
C728       H733 1.140       .   S
C665       C670 1.540       .   A
C665       C666 1.540       .   A
Cu23       Cu24 2.630       .   S
C535       C540 1.540       .   A
C535       C536 1.540       .   A
C537       C538 1.540       .   A
C537       H542 1.140       .   S
C536       C537 1.540       .   A
C778       H783 1.140       .   S
C777       H782 1.140       .   S
C775       H781 1.140       .   S
C667       H672 1.140       .   S
C666       C667 1.540       .   A
C667       C668 1.540       .   A
C780       H784 1.140       .   S
C438       C439 1.540       .   A
C438       H443 1.140       .   S
C437       C438 1.540       .   A
C518       H523 1.140       .   S
C666       C109 1.539       .   S
C729       C730 1.540       .   A
C655       H661 1.140       .   S
C655       C656 1.540       .   A
C430       H434 1.140       .   S
C425       C430 1.540       .   A
O113       C123 1.250       .   A
O117       C126 1.250       .   A
O116       C126 1.250       .   A
C656        C97 1.540       .   S
C656       C657 1.540       .   A
O119       C124 1.250       .   A
O114       C124 1.250       .   A
O118       C125 1.251       .   A
C125       C706 1.539       .   S
O115       C125 1.250       .   A
C657       H662 1.140       .   S
C958       H963 1.140       .   S
C955       H961 1.140       .   S
C749       C371 1.540   1_556   S
O34        Cu38 1.951       .   S
C425       H431 1.140       .   S
C428       H433 1.140       .   S
C427       H432 1.140       .   S
O90         C97 1.251       .   A
C96        C649 1.540       .   S
O91         C96 1.250       .   A
O92         C95 1.250       .   A
C639        C95 1.540       .   S
C556       C557 1.540       .   A
C555       C556 1.540       .   A
C669       C670 1.540       .   A
C669       C189 1.539   1_565   S
C668       C669 1.540       .   A
C530       H534 1.140       .   S
C668       H673 1.140       .   S
C545       C546 1.540       .   A
C545       H551 1.140       .   S
C545       C550 1.540       .   A
C67        C546 1.539       .   S
C546       C547 1.540       .   A
C547       C548 1.540       .   A
C539       C540 1.540       .   A
C227       C228 1.540       .   A
C228       H231 1.140       .   S
C223       C228 1.540       .   A
C224       C225 1.540       .   A
C225       C226 1.540       .   A
C829       C225 1.539   1_556   S
C224       H229 1.140       .   S
C223       C224 1.540       .   A
C926       C227 1.440       .   S
C226       C227 1.540       .   A
C226       H230 1.140       .   S
C548       C549 1.540       .   A
C549       C550 1.540       .   A
C549       C209 1.539   1_565   S
C636       C223 1.540       .   S
O131       C140 1.250       .   A
O130       C140 1.250       .   A
O133       C138 1.250       .   A
O132       C139 1.251       .   A
O134       C137 1.250       .   A
C948       C949 1.540       .   A
C948       H953 1.140       .   S
C947       C948 1.540       .   A
C825       C826 1.540       .   A
C820       H824 1.140       .   S
C815       C820 1.540       .   A
Cu163     Cu164 2.630       .   S
O159      Cu164 1.951       .   S
O157      Cu163 1.951       .   S
O156      Cu163 1.951       .   S
O155      Cu163 1.951       .   S
O158      Cu163 1.951       .   S
C945       C946 1.540       .   A
C946       C947 1.540       .   A
C947       H952 1.140       .   S
C440       H444 1.140       .   S
C325       H329 1.140       .   S
C323       H328 1.140       .   S
C437       H442 1.140       .   S
C318       H321 1.140       .   S
C316       H320 1.140       .   S
C436       C437 1.540       .   A
C398       H403 1.140       .   S
C639       C640 1.540       .   A
C638       C639 1.540       .   A
O145      Cu150 1.951       .   S
O146      Cu150 1.951       .   S
O147      Cu150 1.951       .   S
C768       H773 1.140       .   S
O148      Cu150 1.951       .   S
C487       C488 1.540       .   A
C486       C487 1.540       .   A
C313       C318 1.540       .   A
C317       C318 1.540       .   A
C635       C636 1.540       .   A
C635       C640 1.540       .   A
C25        C446 1.540       .   S
C445       C446 1.540       .   A
C648       C649 1.540       .   A
C647       C648 1.540       .   A
C646       C647 1.540       .   A
C313       C314 1.540       .   A
C515       H521 1.140       .   S
C315       C316 1.540       .   A
C314       C315 1.540       .   A
C314       H319 1.140       .   S
C316       C317 1.540       .   A
C630       H634 1.140       .   S
C26        C456 1.540       .   S
C27        C426 1.540       .   S
C28        C436 1.540       .   S
C580       H584 1.140       .   S
C737       H742 1.140       .   S
C579       C580 1.540       .   A
C579       C362 1.539       .   S
C826       C168 1.539       .   S
O159       C168 1.250       .   A
O158       C168 1.250       .   A
C169       C170 1.540       .   A
C169       C174 1.540       .   A
C386       C169 1.539       .   S
O156       C166 1.250       .   A
O157       C167 1.250       .   A
C165       C856 1.539       .   S
O155       C165 1.250       .   A
C810       H814 1.140       .   S
C55        C539 1.539       .   S
C538       C539 1.540       .   A
C367       C368 1.540       .   A
C368       C369 1.540       .   A
C369       C370 1.540       .   A
C538       H543 1.140       .   S
C367       C372 1.540       .   A
C929       C360 1.440       .   S
C360       C361 1.540       .   A
C361       H365 1.140       .   S
C361       C362 1.540       .   A
C362       C363 1.540       .   A
C363       H366 1.140       .   S
C187       C192 1.540       .   A
C187       C188 1.540       .   A
C469       C187 1.540   1_455   S
C179       C180 1.540       .   A
C180       C181 1.540       .   A
C181       C182 1.540       .   A
C182       C183 1.540       .   A
C178       C183 1.540       .   A
C183       H186 1.140       .   S
C815       H821 1.140       .   S
C815       C816 1.540       .   A
C188       H193 1.140       .   S
C188       C189 1.540       .   A
C189       C190 1.540       .   A
C636       C637 1.540       .   A
C755       H761 1.140       .   S
C818       H823 1.140       .   S
C817       C818 1.540       .   A
C848       H853 1.140       .   S
C260       C261 1.540       .   A
C261       C262 1.540       .   A
C516       C261 1.539       .   S
C259       C260 1.540       .   A
C262       C263 1.540       .   A
C263       C264 1.540       .   A
C259       C264 1.540       .   A
C439       C440 1.540       .   A
C268       C269 1.540       .   A
C269       H274 1.140       .   S
C435       C436 1.540       .   A
C955       C956 1.540       .   A
C956       C254 1.440       .   S
C508       C509 1.540       .   A
C507       C508 1.540       .   A
C509       C200 1.539       .   S
C509       C510 1.540       .   A
C465       C466 1.540       .   A
C465       C470 1.540       .   A
O74        Cu79 1.951       .   S
O71        Cu79 1.951       .   S
O73        Cu79 1.951       .   S
O72        Cu79 1.951       .   S
C505       C510 1.540       .   A
C505       C506 1.540       .   A
C506        C53 1.539       .   S
C506       C507 1.540       .   A
O119      Cu122 1.951       .   S
O118      Cu122 1.951       .   S
O117      Cu122 1.951       .   S
Cu121     Cu122 2.630       .   S
O113      Cu121 1.951       .   S
O116      Cu121 1.951       .   S
O115      Cu121 1.951       .   S
O114      Cu121 1.951       .   S
C910       H914 1.140       .   S
C400       H404 1.140       .   S
C845       H851 1.140       .   S
C975       C980 1.540       .   A
C868       C869 1.540       .   A
C867       C868 1.540       .   A
C860       H864 1.140       .   S
C855       C860 1.540       .   A
C859       C860 1.540       .   A
C866       C867 1.540       .   A
C866       C171 1.440       .   S
C865       C866 1.540       .   A
C558       H563 1.140       .   S
C557       H562 1.140       .   S
C555       H561 1.140       .   S
C14        C406 1.539       .   S
C435       C440 1.540       .   A
C214       C215 1.540       .   A
C214       C219 1.540       .   A
C215       C216 1.540       .   A
C216       C916 1.440       .   S
C216       C217 1.540       .   A
C217       C218 1.540       .   A
C205       C210 1.540       .   A
C209       C210 1.540       .   A
O78         C81 1.250       .   A
O75         C84 1.250       .   A
O74         C84 1.250       .   A
O77         C82 1.250       .   A
O76         C83 1.251       .   A
O71         C81 1.250       .   A
C218       C219 1.540       .   A
O73         C83 1.250       .   A
O72         C82 1.250       .   A
C915       C920 1.540       .   A
C919       C920 1.540       .   A
C916       C917 1.540       .   A
C917       C918 1.540       .   A
C915       C916 1.540       .   A
C915       H921 1.140       .   S
C600       H604 1.140       .   S
C606       C607 1.540       .   A
C81        C606 1.540       .   S
C605       C606 1.540       .   A
O106       C109 1.250       .   A
C918       C919 1.540       .   A
C927       H932 1.140       .   S
O63         C68 1.250       .   A
O62         C69 1.251       .   A
O64         C67 1.250       .   A
C170       H175 1.140       .   S
C172       H176 1.140       .   S
C174       H177 1.140       .   S
C928       H933 1.140       .   S
C322       C323 1.540       .   A
C322       C327 1.540       .   A
C323       C324 1.540       .   A
C324       C325 1.540       .   A
C325       C326 1.540       .   A
C326       C327 1.540       .   A
C730       H734 1.140       .   S
C466       C467 1.540       .   A
C467       C468 1.540       .   A
C700       H704 1.140       .   S
C13        C416 1.539       .   S
O6          C13 1.251       .   A
O3          C13 1.250       .   A
O7          C12 1.250       .   A
O2          C12 1.250       .   A
C11        C389 1.539       .   S
O1          C11 1.250       .   A
O8          C11 1.250       .   A
O5          C14 1.250       .   A
O4          C14 1.250       .   A
C137       C776 1.540       .   S
O31        Cu37 1.951       .   S
O30        Cu37 1.951       .   S
O32        Cu37 1.951       .   S
Cu37       Cu38 2.630       .   S
O33        Cu38 1.951       .   S
O35        Cu38 1.951       .   S
O36        Cu38 1.951       .   S
C469       C470 1.540       .   A
C468       C469 1.540       .   A
C779       C780 1.540       .   A
C775       C780 1.540       .   A
C427       C428 1.540       .   A
C786       C787 1.540       .   A
C785       C786 1.540       .   A
C787       C788 1.540       .   A
C785       C790 1.540       .   A
C788       C789 1.540       .   A
C789       C790 1.540       .   A
C218       C789 1.540       .   S
C426       C427 1.540       .   A
C425       C426 1.540       .   A
C708       C709 1.540       .   A
C709       C205 1.539   1_556   S
C677       H682 1.140       .   S
C82        C586 1.540       .   S
C557       C558 1.540       .   A
C770       H774 1.140       .   S
C479       C250 1.540   1_455   S
C250       C251 1.540       .   A
C250       C255 1.540       .   A
C251       C252 1.540       .   A
C252       C253 1.540       .   A
C253       C254 1.540       .   A
C254       C255 1.540       .   A
C559       C173 1.539   1_565   S
C558       C559 1.540       .   A
C817       H822 1.140       .   S
C778       C779 1.540       .   A
C707       C708 1.540       .   A
C706       C707 1.540       .   A
C959       C333 1.440       .   S
C958       C959 1.540       .   A
C816       C817 1.540       .   A
O4          Cu9 1.951       .   S
O3          Cu9 1.951       .   S
O2          Cu9 1.951       .   S
O1          Cu9 1.951       .   S
C777       C778 1.540       .   A
C445       H451 1.140       .   S
C945       H951 1.140       .   S
C776       C777 1.540       .   A
C775       C776 1.540       .   A
C678       C679 1.540       .   A
C677       C678 1.540       .   A
C670       H674 1.140       .   S
C676       C677 1.540       .   A
C675       C676 1.540       .   A
C675       H681 1.140       .   S
C56        C519 1.539       .   S
C585       C586 1.540       .   A
C586       C587 1.540       .   A
C587       C588 1.540       .   A
C178       C179 1.540       .   A
C475       C480 1.540       .   A
C170       C171 1.540       .   A
C171       C172 1.540       .   A
C172       C173 1.540       .   A
C173       C174 1.540       .   A
C380       C919 1.440       .   S
C379       C380 1.540       .   A
C378       C379 1.540       .   A
C377       C378 1.540       .   A
C376       C377 1.540       .   A
C376       C381 1.540       .   A
C371       C372 1.540       .   A
C370       C371 1.540       .   A
C196       C197 1.540       .   A
C197       C198 1.540       .   A
C196       C201 1.540       .   A
C196       C589 1.540       .   S
C480       H484 1.140       .   S
C191       C192 1.540       .   A
C192       H195 1.140       .   S
C190       C191 1.540       .   A
C190       H194 1.140       .   S
C199       C200 1.540       .   A
C198       C199 1.540       .   A
C826       C827 1.540       .   A
C827       C828 1.540       .   A
C297       C298 1.540       .   A
C298       C299 1.540       .   A
C298       H302 1.140       .   S
C295       C296 1.540       .   A
C296       C297 1.540       .   A
C296       H301 1.140       .   S
C290       C291 1.540       .   A
C479       C480 1.540       .   A
C518       C519 1.540       .   A
C517       C518 1.540       .   A
O99        C109 1.250       .   A
C516       C517 1.540       .   A
C515       C516 1.540       .   A
C856       C857 1.540       .   A
C855       C856 1.540       .   A
C857       H862 1.140       .   S
C855       H861 1.140       .   S
C528       C529 1.540       .   A
C975       C976 1.540       .   A
C529       C530 1.540       .   A
C529       C335 1.539   1_455   S
C385       H391 1.140       .   S
C387       H392 1.140       .   S
C388       H393 1.140       .   S
C206       C207 1.540       .   A
C207       C208 1.540       .   A
C205       C206 1.540       .   A
C828       C829 1.540       .   A
C200       C201 1.540       .   A
C208       C209 1.540       .   A
C416       C417 1.540       .   A
C415       C416 1.540       .   A
C755       C760 1.540       .   A
C926       C927 1.540       .   A
C925       C926 1.540       .   A
C927       C928 1.540       .   A
C637       C638 1.540       .   A
C928       C929 1.540       .   A
C588       C589 1.540       .   A
C332       C333 1.540       .   A
C333       C334 1.540       .   A
C331       C332 1.540       .   A
C331       C336 1.540       .   A
C335       C336 1.540       .   A
C334       C335 1.540       .   A
C705       C706 1.540       .   A
C417       C418 1.540       .   A
C418       C419 1.540       .   A
C386       C387 1.540       .   A
C385       C386 1.540       .   A
C387       C388 1.540       .   A
C798       C799 1.540       .   A
C797       C798 1.540       .   A
C380       C381 1.540       .   A
C795       C796 1.540       .   A
C796       C797 1.540       .   A
C388       C389 1.540       .   A
