data_ucp_v1-4c_Cu_1_Ch_v2-3c_triazine_Ch_1B_4H_Ch_1B_4H_Ch
_audit_creation_date              2019-08-21
_audit_creation_method            'tobacco_3.0'
_symmetry_space_group_name_H-M    'P1'
_symmetry_Int_Tables_number       1
_symmetry_cell_setting            triclinic
loop_
_symmetry_equiv_pos_as_xyz
  x,y,z
_cell_length_a                    43.81465979886707
_cell_length_b                    43.81383299739728
_cell_length_c                    43.81500551018635
_cell_angle_alpha                 89.9785364668742
_cell_angle_beta                  89.97756791704869
_cell_angle_gamma                 89.97885274826308
loop_
_atom_site_label
_atom_site_type_symbol
_atom_site_fract_x
_atom_site_fract_y
_atom_site_fract_z
O1         O   -0.0313185501    0.2987933994    0.2545001662
O2         O    0.0313045863    0.2544899189    0.2987804491
O3         O    0.0313100852    0.2987786947    0.2544899618
O4         O   -0.0313240480    0.2545013991    0.2987938857
O5         O   -0.0313100841    0.2186180808    0.2629132703
O6         O    0.0313194850    0.2628954351    0.2186094067
O7         O    0.0313185501    0.2186066006    0.2628998338
O8         O   -0.0313045863    0.2629100811    0.2186195509
Cu9       Cu   -0.0000062759    0.2799152131    0.2799156395
Cu10      Cu    0.0000062759    0.2374847869    0.2374843605
C11        C   -0.0405447713    0.2873839559    0.2300301174
C12        C    0.0405447713    0.2300160441    0.2873698826
C13        C    0.0405465310    0.2873674195    0.2300182464
C14        C   -0.0405465310    0.2300325805    0.2873817536
O15        O    0.0313811776    0.7486365730    0.2630565210
O16        O   -0.0312310656    0.7043762626    0.2187970450
O17        O   -0.0312474581    0.7486485319    0.2630708721
O18        O    0.0313975699    0.7043610805    0.2187794630
O19        O    0.0313971875    0.6684643841    0.2546735808
O20        O   -0.0312432766    0.7127518923    0.2989649294
O21        O   -0.0312314480    0.6684795662    0.2546911628
O22        O    0.0313807952    0.7127398766    0.2989506389
Cu23      Cu    0.0000731108    0.7297811938    0.2376502195
Cu24      Cu    0.0000766188    0.6873349455    0.2800974644
C25        C    0.0406125835    0.7372140751    0.2875302533
C26        C   -0.0404628539    0.6799020642    0.2302174306
C27        C   -0.0404787202    0.7372320630    0.2875474924
C28        C    0.0406284498    0.6798840763    0.2302001914
O29        O   -0.0312450402    0.2630512760    0.7486592054
O30        O    0.0313998529    0.2187667385    0.7043748913
O31        O    0.0313835948    0.2630402982    0.7486474279
O32        O   -0.0312287795    0.2187744853    0.7043834454
O33        O   -0.0312274845    0.2546707397    0.6684888854
O34        O    0.0313803259    0.2989364939    0.7127529266
O35        O    0.0314011479    0.2546629928    0.6684803313
O36        O   -0.0312437452    0.2989475303    0.7127646454
Cu37      Cu    0.0000792690    0.2376322479    0.7297916286
Cu38      Cu    0.0000768387    0.2800820209    0.6873479081
C39        C   -0.0404808041    0.2875297716    0.7372413148
C40        C    0.0406369118    0.2301844972    0.6798982219
C41        C    0.0406104982    0.2875142149    0.7372285690
C42        C   -0.0404543905    0.2302000539    0.6799109677
O43        O   -0.0311455796    0.6686401677    0.7129351409
O44        O    0.0314784713    0.7129198761    0.6686295691
O45        O    0.0314830551    0.6686323315    0.7129212873
O46        O   -0.0311501623    0.7129309367    0.6686401904
O47        O   -0.0311640744    0.7488152547    0.7045198061
O48        O    0.0314645791    0.7045165923    0.7488008446
O49        O    0.0314645592    0.7488041940    0.7045091848
O50        O   -0.0311594917    0.7045244856    0.7488147565
Cu51      Cu    0.0001696958    0.6875063760    0.6875071135
Cu52      Cu    0.0001492838    0.7299379857    0.7299372121
C53        C   -0.0403858741    0.6800536160    0.7374084184
C54        C    0.0407048536    0.7373907458    0.6800359072
C55        C    0.0407054290    0.6800409665    0.7373891394
C56        C   -0.0403864494    0.7374033952    0.6800551862
O57        O    0.3151360384    1.0149384380    0.2544876032
O58        O    0.2708580991    0.9523118680    0.2987919065
O59        O    0.3151464497    0.9523086212    0.2545010808
O60        O    0.2708444633    1.0149416837    0.2987816611
O61        O    0.2349621534    1.0149537285    0.2629013217
O62        O    0.2792641968    0.9523252300    0.2186207998
O63        O    0.2349757892    0.9523239128    0.2629115671
O64        O    0.2792537286    1.0149504828    0.2186072638
Cu65      Cu    0.2962705314    0.9836220734    0.2799150623
Cu66      Cu    0.2538412962    0.9836402774    0.2374841080
C67        C    0.3037233334    1.0241781702    0.2300141507
C68        C    0.2463884943    0.9430841806    0.2873850196
C69        C    0.3037393170    0.9430853366    0.2300329431
C70        C    0.2463725107    1.0241770142    0.2873662272
O71        O    0.3153045662    0.9523959695    0.7127746514
O72        O    0.2710190404    1.0150366990    0.6684864107
O73        O    0.3152897222    1.0150257872    0.7127602391
O74        O    0.2710306613    0.9524068835    0.6684975921
O75        O    0.2351340333    0.9524073869    0.7043917080
O76        O    0.2793931530    1.0150217266    0.7486542966
O77        O    0.2351224124    1.0150372024    0.7043805266
O78        O    0.2794079382    0.9523964729    0.7486687673
Cu79      Cu    0.2964365722    0.9837182691    0.6873539668
Cu80      Cu    0.2539904064    0.9837149028    0.7298012112
C81        C    0.3038858202    0.9431604237    0.7372526237
C82        C    0.2465411584    1.0242727482    0.6799025543
C83        C    0.3038691039    1.0242532575    0.7372326202
C84        C    0.2465578748    0.9431799144    0.6799225578
O85        O    0.7291308447    1.0150203634    0.2989270077
O86        O    0.6848702384    0.9524078571    0.2546670543
O87        O    0.7291440470    0.9523905465    0.2989377585
O88        O    0.6848538052    1.0150376738    0.2546530803
O89        O    0.7207485044    1.0150383282    0.2187570356
O90        O    0.7650386857    0.9523957649    0.2630417708
O91        O    0.7207649375    0.9524085115    0.2187710096
O92        O    0.7650255439    1.0150210178    0.2630309631
Cu93      Cu    0.7037239249    0.9837120704    0.2800717475
Cu94      Cu    0.7461718574    0.9837168044    0.2376262698
C95        C    0.7536050343    1.0242523265    0.2875047830
C96        C    0.6962907480    0.9431765484    0.2301932343
C97        C    0.7536207859    0.9431594933    0.2875212067
C98        C    0.6962749963    1.0242693815    0.2301768106
O99        O    0.6850017152    1.0151077155    0.7129286341
O100       O    0.7293041516    0.9524798143    0.6686514027
O101       O    0.6850153974    0.9524778981    0.7129418249
O102       O    0.7292936940    1.0151096304    0.6686349797
O103       O    0.7651756758    1.0150973990    0.7045156472
O104       O    0.7208973205    0.9524702307    0.7488224320
O105       O    0.7651861335    0.9524675829    0.7045320702
O106       O    0.7208836970    1.0150954840    0.7488093016
Cu107     Cu    0.7038795014    0.9837929006    0.6875146818
Cu108     Cu    0.7463083472    0.9837823977    0.7299460224
C109       C    0.6964106444    1.0243355055    0.7373982591
C110       C    0.7537772043    0.9432397929    0.6800624452
C111       C    0.6964258569    0.9432426726    0.7374139969
C112       C    0.7537619918    1.0243326258    0.6800467074
O113       O    0.2349744696    0.2629063846    0.9523311439
O114       O    0.2792565582    0.2186017232    1.0149519932
O115       O    0.2349675774    0.2628921102    1.0149592842
O116       O    0.2792666750    0.2186127655    0.9523238538
O117       O    0.3151484744    0.2544953810    0.9523094438
O118       O    0.2708493196    0.2987746674    1.0149403103
O119       O    0.3151383577    0.2544843388    1.0149375832
O120       O    0.2708562690    0.2987890001    0.9523167339
Cu121     Cu    0.2538420979    0.2374785387    0.9836448638
Cu122     Cu    0.2962707293    0.2799121847    0.9836238633
C123       C    0.2463863076    0.2873810279    0.9430910726
C124       C    0.3037265196    0.2300096955    1.0241776545
C125       C    0.2463748805    0.2873612038    1.0241817356
C126       C    0.3037379467    0.2300295196    0.9430869916
O127       O    0.7207607917    0.2187679994    0.9524056667
O128       O    0.7650241762    0.2630304285    1.0150133289
O129       O    0.7207501256    0.2187577877    1.0150338072
O130       O    0.7650380733    0.2630438637    0.9523851883
O131       O    0.7291435698    0.2989402593    0.9523864829
O132       O    0.6848556823    0.2546541264    1.0150305379
O133       O    0.7291296727    0.2989268242    1.0150146235
O134       O    0.6848662882    0.2546643951    0.9524069613
Cu135     Cu    0.7461690829    0.2376244655    0.9837113596
Cu136     Cu    0.7037213816    0.2800703581    0.9837089305
C137       C    0.6962862904    0.2301900346    0.9431753924
C138       C    0.7536041741    0.2875047890    1.0242448978
C139       C    0.6962738224    0.2301743088    1.0242660549
C140       C    0.7536166420    0.2875205149    0.9431542352
O141       O    0.2710157940    0.6685166719    0.9524128221
O142       O    0.3152758861    0.7127775627    1.0150239005
O143       O    0.2710017034    0.6685050552    1.0150409636
O144       O    0.3152932077    0.7127924028    0.9523957592
O145       O    0.2793988119    0.7486889062    0.9523958967
O146       O    0.2351073680    0.7044015017    1.0150365372
O147       O    0.2793814903    0.7486740661    1.0150240380
O148       O    0.2351213982    0.7044131753    0.9524129596
Cu149     Cu    0.2964224290    0.6873723590    0.9837203288
Cu150     Cu    0.2539748553    0.7298183791    0.9837165313
C151       C    0.2465418319    0.6799389877    0.9431814655
C152       C    0.3038554524    0.7372517503    1.0242553946
C153       C    0.2465249300    0.6799214428    1.0242721293
C154       C    0.3038723543    0.7372692952    0.9431647308
O155       O    0.7208956883    0.7488217292    1.0151054706
O156       O    0.7652012895    0.7045421461    0.9524820162
O157       O    0.7209103395    0.7488305639    0.9524773296
O158       O    0.7651898705    0.7045300868    1.0151101561
O159       O    0.7293090659    0.6686464770    1.0151232368
O160       O    0.6850295933    0.7129470111    0.9524949741
O161       O    0.7293204849    0.6686585362    0.9524950969
O162       O    0.6850148836    0.7129381193    1.0151185512
Cu163     Cu    0.7463238389    0.7299555189    0.9837905694
Cu164     Cu    0.7038923343    0.6875247464    0.9838099981
C165       C    0.6964218119    0.7374086164    1.0243452613
C166       C    0.7537943613    0.6800716489    0.9432553062
C167       C    0.6964421238    0.7374225588    0.9432545976
C168       C    0.7537740493    0.6800577066    1.0243459699
C169       C    0.1413149252    0.1680039620    0.3632528284
N170       N    0.1441769717    0.1708648151    0.3981630261
C171       C    0.1671350882    0.1507672228    0.4156186094
N172       N    0.1872311581    0.1278087773    0.3981639950
C173       C    0.1843691116    0.1249479242    0.3632537973
N174       N    0.1614109951    0.1450455165    0.3457982140
C175       C    0.8156584875    0.8423519035    0.3633994718
N176       N    0.8128216487    0.8395162495    0.3983181488
C177       C    0.8329296452    0.8165697264    0.4157793092
N178       N    0.8558744805    0.7964588573    0.3983217926
C179       C    0.8587113193    0.7992945114    0.3634031155
N180       N    0.8386033228    0.8222410344    0.3459419551
C181       C    0.8587739034    0.1681536922    0.6040859599
N182       N    0.8559209451    0.1709977007    0.5691713294
C183       C    0.8329787853    0.1508961562    0.5517338689
N184       N    0.8128895839    0.1279506032    0.5692110388
C185       C    0.8157425422    0.1251065947    0.6041256693
N186       N    0.8386847020    0.1452081392    0.6215631298
C187       C    0.1845245611    0.8424035180    0.6040906234
N188       N    0.1873695529    0.8395502707    0.5691760000
C189       C    0.1672694388    0.8166070277    0.5517381355
N190       N    0.1443243328    0.7965170320    0.5692148944
C191       C    0.1414793409    0.7993702793    0.6041295178
N192       N    0.1615794551    0.8223135223    0.6215673823
C193       C    0.3796140961    0.1679991999    0.1249447967
N194       N    0.4145246827    0.1708596347    0.1278060373
C195       C    0.4319804626    0.1507624052    0.1507642718
N196       N    0.4145256559    0.1278047408    0.1708612656
C197       C    0.3796150693    0.1249443059    0.1680000250
N198       N    0.3621592895    0.1450415355    0.1450417905
C199       C    0.3797594192    0.8423525986    0.7992972575
N200       N    0.4146782776    0.8395144324    0.7964619990
C201       C    0.4321372150    0.8165685321    0.8165726135
N202       N    0.4146772941    0.7964607980    0.8395184867
C203       C    0.3797584357    0.7992989642    0.8423537452
N204       N    0.3622994982    0.8222448645    0.8222431307
C205       C    0.6204535015    0.8424015125    0.1681648541
N206       N    0.5855385956    0.8395475495    0.1710092224
C207       C    0.5681011829    0.8166046219    0.1509084123
N208       N    0.5855786762    0.7965156573    0.1279632338
C209       C    0.6204935821    0.7993696203    0.1251188654
N210       N    0.6379309948    0.8223125479    0.1452196756
C211       C    0.6204579532    0.1681578808    0.8423957112
N212       N    0.6379346147    0.1452118502    0.8223068889
C213       C    0.6204965841    0.1251114287    0.7993642815
N214       N    0.5855818921    0.1279570378    0.7965104965
C215       C    0.5681052306    0.1509030684    0.8165993188
N216       N    0.5855432612    0.1710034899    0.8395419262
C217       C    0.1843801161    0.3632499033    0.1249654762
N218       N    0.1872398453    0.3981612793    0.1278263212
C219       C    0.1671425871    0.4156176437    0.1507846397
N220       N    0.1441855996    0.3981626320    0.1708821133
C221       C    0.1413258703    0.3632512560    0.1680212683
N222       N    0.1614231286    0.3457948916    0.1450629498
C223       C    0.8156368155    0.3633959714    0.8423266710
N224       N    0.8128028128    0.3983158540    0.8394924597
C225       C    0.8329129669    0.4157772751    0.8165474907
N226       N    0.8558571238    0.3983188136    0.7964367329
C227       C    0.8586911266    0.3633989310    0.7992709442
N228       N    0.8385809724    0.3459375099    0.8222159132
C229       C    0.1845265245    0.6040965091    0.8424014468
N230       N    0.1873704124    0.5691806983    0.8395509840
C231       C    0.1672709238    0.5517409216    0.8166090140
N232       N    0.1443275473    0.5692169558    0.7965175067
C233       C    0.1414836593    0.6041327666    0.7993679695
N234       N    0.1615831479    0.6215725433    0.8223099396
C235       C    0.8587522504    0.6040895007    0.1681717483
N236       N    0.8386643842    0.6215686363    0.1452275737
C237       C    0.8157235675    0.6041318747    0.1251240915
N238       N    0.8128706171    0.5692159776    0.1279647838
C239       C    0.8329584833    0.5517368420    0.1509089583
N240       N    0.8558993000    0.5691736036    0.1710124406
C241       C    0.1845134786    0.1250927616    0.6040320467
N242       N    0.1873489118    0.1279282971    0.5691132464
C243       C    0.1672393180    0.1508738665    0.5516526729
N244       N    0.1442942909    0.1709839004    0.5691108998
C245       C    0.1414588578    0.1681483649    0.6040297001
N246       N    0.1615684516    0.1452027955    0.6214902735
C247       C    0.8588344993    0.7994123433    0.6041760801
N248       N    0.8387371294    0.8223690762    0.6216314513
C249       C    0.8157792923    0.8424673606    0.6041762968
N250       N    0.8129188251    0.8396089121    0.5692657711
C251       C    0.8330161949    0.8166521793    0.5518103999
N252       N    0.8559740320    0.7965538949    0.5692655545
C253       C    0.1413962122    0.7992590204    0.3633442111
N254       N    0.1442500941    0.7964163542    0.3982588745
C255       C    0.1671924304    0.8165188547    0.4156950010
N256       N    0.1872808849    0.8394640214    0.3982164640
C257       C    0.1844270030    0.8423066876    0.3633018006
N258       N    0.1614846666    0.8222041871    0.3458656741
C259       C    0.8156359348    0.1250299965    0.3633358919
N260       N    0.8127922580    0.1278820874    0.3982507167
C261       C    0.8328932777    0.1508245041    0.4156886244
N262       N    0.8558379743    0.1709148299    0.3982117072
C263       C    0.8586816511    0.1680627389    0.3632968823
N264       N    0.8385806314    0.1451203222    0.3458589746
C265       C    0.1413781712    0.3633400994    0.7992866517
N266       N    0.1614663003    0.3458621017    0.8222314620
C267       C    0.1844083631    0.3632996953    0.8423328005
N268       N    0.1872622968    0.3982152866    0.8394893287
C269       C    0.1671741677    0.4156932843    0.8165445184
N270       N    0.1442321050    0.3982556906    0.7964431799
C271       C    0.8156466156    0.3633324860    0.1250148776
N272       N    0.8128010396    0.3982478567    0.1278690371
C273       C    0.8329005050    0.4156863090    0.1508120343
N274       N    0.8558455464    0.3982093907    0.1709008721
C275       C    0.8586911223    0.3632940200    0.1680467126
N276       N    0.8385916569    0.3458555676    0.1451037154
C277       C    0.8158019381    0.6041788817    0.8424942622
N278       N    0.8129392415    0.5692678602    0.8396320791
C279       C    0.8330343436    0.5518107798    0.8166724192
N280       N    0.8559921423    0.5692647208    0.7965749423
C281       C    0.8588548389    0.6041757422    0.7994371253
N282       N    0.8387597368    0.6216328226    0.8223967853
C283       C    0.1844956164    0.6040374678    0.1250863214
N284       N    0.1615503293    0.6214943769    0.1451971379
C285       C    0.1414430543    0.6040318597    0.1681437967
N286       N    0.1442810665    0.5691124333    0.1709796391
C287       C    0.1672263536    0.5516555241    0.1508688226
N288       N    0.1873336286    0.5691180414    0.1279221638
C289       C    0.3796983383    0.1250376285    0.7992588599
N290       N    0.4146133176    0.1278907940    0.7964145886
C291       C    0.4320512186    0.1508332000    0.8165155702
N292       N    0.4145741405    0.1709224405    0.8394608231
C293       C    0.3796591613    0.1680692749    0.8423050944
N294       N    0.3622212602    0.1451268689    0.8222041128
C295       C    0.3797019991    0.7992666536    0.1250339859
N296       N    0.4146168121    0.7964215919    0.1278868383
C297       C    0.4320549841    0.8165213280    0.1508299386
N298       N    0.4145783431    0.8394661258    0.1709201866
C299       C    0.3796635301    0.8423111875    0.1680673343
N300       N    0.3622253581    0.8222114514    0.1451242340
C301       C    0.6203961348    0.1250873406    0.1681458623
N302       N    0.6378548947    0.1451968693    0.1452006788
C303       C    0.6203945657    0.1681420345    0.1250904340
N304       N    0.5854754768    0.1709776710    0.1279253729
C305       C    0.5680167169    0.1508681422    0.1508705564
N306       N    0.5854770459    0.1279229771    0.1709808011
C307       C    0.6205424763    0.7994146490    0.8424785105
N308       N    0.5856316844    0.7965549567    0.8396190208
C309       C    0.5681753092    0.8166517744    0.8166608788
N310       N    0.5856297258    0.8396082845    0.7965622266
C311       C    0.6205405177    0.8424679769    0.7994217163
N312       N    0.6379968930    0.8223711591    0.8223798582
C903       C    0.8532405730    0.5012942268    0.1281868258
C904       C    0.8329444731    0.5188606778    0.1508855369
C905       C    0.8126333943    0.5012780265    0.1735592075
C906       C    0.8126184154    0.4661289242    0.1735341669
C907       C    0.8329145153    0.4485624733    0.1508354557
C908       C    0.8532255941    0.4661451246    0.1281617851
H909       H    0.8682760469    0.5143099557    0.1114024203
H910       H    0.7976096505    0.5142800946    0.1903614304
H911       H    0.7975829415    0.4531131954    0.1903185724
H912       H    0.8682493379    0.4531430564    0.1113595622
C893       C    0.1794597113    0.5013017028    0.7887039453
C894       C    0.1672475436    0.5188662039    0.8165934292
C895       C    0.1550103781    0.5012816041    0.8444662501
C896       C    0.1549853803    0.4661325031    0.8444495871
C897       C    0.1671975480    0.4485680020    0.8165601032
C898       C    0.1794347135    0.4661526018    0.7886872823
H899       H    0.1885183922    0.5143188741    0.7680708182
H900       H    0.1459705877    0.5142822289    0.8651108290
H901       H    0.1459266993    0.4531153318    0.8650827142
H902       H    0.1884745039    0.4531519770    0.7680427034
C883       C    0.8041496709    0.4662689496    0.8067752554
C884       C    0.8329422933    0.4486449507    0.8165776752
C885       C    0.8617662776    0.4661700285    0.8264123747
C886       C    0.8617976396    0.5013191053    0.8264446544
C887       C    0.8330050172    0.5189431043    0.8166422346
C888       C    0.8041810329    0.5014180264    0.8068075351
H889       H    0.7828124358    0.4532958400    0.7994950233
H890       H    0.8830793865    0.4531253617    0.8336684023
H891       H    0.8831348747    0.5142922149    0.8337248866
H892       H    0.7828679240    0.5144626932    0.7995515076
C873       C    0.1761911131    0.4660246771    0.1798849614
C874       C    0.1671628270    0.4484874841    0.1508049802
C875       C    0.1581561842    0.4660993909    0.1217467501
C876       C    0.1581778275    0.5012484907    0.1217685010
C877       C    0.1672061137    0.5187856836    0.1508484821
C878       C    0.1762127565    0.5011737768    0.1799067123
H879       H    0.1828583682    0.4529872915    0.2013955993
H880       H    0.1514731938    0.4531189804    0.1002209318
H881       H    0.1515105725    0.5142858763    0.1002578631
H882       H    0.1828957469    0.5141541873    0.2014325306
C863       C    0.5176213815    0.1508657541    0.8470072469
C864       C    0.5352266642    0.1508861842    0.8165790803
C865       C    0.5176835074    0.1508885643    0.7861292779
C866       C    0.4825350678    0.1508705144    0.7861076421
C867       C    0.4649297850    0.1508500843    0.8165358087
C868       C    0.4824729419    0.1508477041    0.8469856111
H869       H    0.5306078742    0.1508639921    0.8695480097
H870       H    0.5307143199    0.1509036867    0.7636054935
H871       H    0.4695485751    0.1508722764    0.7635668793
H872       H    0.4694421293    0.1508325818    0.8695093955
C853       C    0.5176938554    0.7950576137    0.1293557008
C854       C    0.5352265212    0.8165844945    0.1508894496
C855       C    0.5176107493    0.8380898557    0.1724029243
C856       C    0.4824623116    0.8380683362    0.1723826501
C857       C    0.4649296458    0.8165414554    0.1508489012
C858       C    0.4825454177    0.7950360942    0.1293354266
H859       H    0.5307341021    0.7791380606    0.1134301417
H860       H    0.5305878088    0.8540246569    0.1883428094
H861       H    0.4694220649    0.8539878893    0.1883082092
H862       H    0.4695683583    0.7791012929    0.1133955414
C843       C    0.4826233319    0.7893783177    0.8029926223
C844       C    0.4650078269    0.8165886458    0.8165939409
C845       C    0.4825407572    0.8438204814    0.8302180648
C846       C    0.5176891923    0.8438419889    0.8302408701
C847       C    0.5353046973    0.8166316608    0.8166395515
C848       C    0.5177717670    0.7893998252    0.8030154275
H849       H    0.4696444095    0.7692196861    0.7929072319
H850       H    0.4695023779    0.8639623313    0.8402861437
H851       H    0.5306681147    0.8640006204    0.8403262605
H852       H    0.5308101463    0.7692579752    0.7929473487
C833       C    0.4824084726    0.1371783250    0.1780291423
C834       C    0.4648501659    0.1507879539    0.1507899528
C835       C    0.4824402831    0.1644249026    0.1235782246
C836       C    0.5175887069    0.1644522225    0.1236056859
C837       C    0.5351470136    0.1508425936    0.1508448754
C838       C    0.5175568964    0.1372056448    0.1780566036
H839       H    0.4693872170    0.1270834408    0.1981728892
H840       H    0.4694442436    0.1744991331    0.1034150121
H841       H    0.5306099625    0.1745471066    0.1034619391
H842       H    0.5305529359    0.1271314143    0.1982198161
C823       C    0.1943212419    0.8304642519    0.5012500897
C824       C    0.1672508305    0.8165857216    0.5188647276
C825       C    0.1401605232    0.8026844109    0.5013312061
C826       C    0.1401406273    0.8026616304    0.4661830467
C827       C    0.1672110387    0.8165401608    0.4485684089
C828       C    0.1943013460    0.8304414715    0.4661019304
H829       H    0.2143751058    0.8407548325    0.5142294498
H830       H    0.1201222436    0.7924111321    0.5143689435
H831       H    0.1200867634    0.7923710498    0.4532036867
H832       H    0.2143396257    0.8407147502    0.4530641929
C813       C    0.8618433902    0.1412905856    0.5012640694
C814       C    0.8329581229    0.1508788419    0.5188594079
C815       C    0.8040507642    0.1604485865    0.5013065852
C816       C    0.8040286728    0.1604300747    0.4661584239
C817       C    0.8329139401    0.1508418184    0.4485630854
C818       C    0.8618212988    0.1412720738    0.4661159081
H819       H    0.8832423441    0.1342064889    0.5142577174
H820       H    0.7826690772    0.1675460826    0.5143300367
H821       H    0.7826297189    0.1675141713    0.4531647759
H822       H    0.8832029858    0.1341745777    0.4530924565
C803       C    0.8160489946    0.7912978616    0.4662633939
C804       C    0.8329505571    0.8165896484    0.4486466962
C805       C    0.8498744825    0.8419027396    0.4661781569
C806       C    0.8498968455    0.8419240440    0.5013263152
C807       C    0.8329952831    0.8166322573    0.5189430130
C808       C    0.8160713577    0.7913191661    0.5014115523
H809       H    0.8035208940    0.7725595993    0.4532855594
H810       H    0.8623854945    0.8606244314    0.4531388946
H811       H    0.8624249461    0.8606623063    0.5143041497
H812       H    0.8035603456    0.7725974743    0.5144508145
C793       C    0.1886778836    0.1723426223    0.4660121234
C794       C    0.1671602724    0.1507929903    0.4484874944
C795       C    0.1456695919    0.1292709127    0.4661110122
C796       C    0.1456965225    0.1292984670    0.5012591589
C797       C    0.1672141337    0.1508480990    0.5187837878
C798       C    0.1887048142    0.1723701766    0.5011602701
H799       H    0.2045865692    0.1882745499    0.4529661427
H800       H    0.1297416524    0.1133192706    0.4531399019
H801       H    0.1297878369    0.1133665394    0.5143051396
H802       H    0.2046327537    0.1883218187    0.5141313804
C783       C    0.7796289968    0.6281609926    1.0428837997
C784       C    0.7692566067    0.6610821587    1.0495326556
C785       C    0.7743764183    0.6750159567    1.0813838866
C786       C    0.7898686201    0.6560285886    1.1065862617
C787       C    0.8002410102    0.6231074225    1.0999374057
C788       C    0.7951211985    0.6091736245    1.0680861747
H789       H    0.7758390063    0.6178463629    1.0193056157
H790       H    0.7666989741    0.6993845278    1.0863063542
H791       H    0.7936586105    0.6663432183    1.1301644457
H792       H    0.8027986428    0.5848050534    1.0631637072
C773       C    0.7777912100    0.6275261801    0.9240771048
C774       C    0.7692915915    0.6611041655    0.9180726241
C775       C    0.7762985313    0.6757032508    0.8868703035
C776       C    0.7918050895    0.6567243505    0.8616724636
C777       C    0.8003047080    0.6231463650    0.8676769442
C778       C    0.7932977682    0.6085472798    0.8988792648
H779       H    0.7726042545    0.6167190650    0.9471749265
H780       H    0.7700073656    0.7005580183    0.8824248208
H781       H    0.7969920449    0.6675314656    0.8385746418
H782       H    0.7995889338    0.5836925123    0.9033247475
C763       C    0.6929411204    0.7631943365    0.8882176613
C764       C    0.6774716237    0.7529169780    0.9180664335
C765       C    0.6430228033    0.7581412455    0.9227153262
C766       C    0.6240434797    0.7736428714    0.8975154468
C767       C    0.6395129765    0.7839202298    0.8676666746
C768       C    0.6739617968    0.7786959624    0.8630177818
H769       H    0.7184421952    0.7593270216    0.8847762731
H770       H    0.6315712466    0.7505341466    0.9448094284
H771       H    0.5985424050    0.7775101862    0.9009568349
H772       H    0.6854133536    0.7863030612    0.8409236796
C753       C    0.6875727421    0.7505590258    1.0831047964
C754       C    0.6774454343    0.7528942323    1.0495311239
C755       C    0.6483303892    0.7707243249    1.0411583909
C756       C    0.6293426519    0.7862192109    1.0663593303
C757       C    0.6394699597    0.7838840044    1.0999330028
C758       C    0.6685850048    0.7660539118    1.1083057359
H759       H    0.7091254378    0.7373601262    1.0893027935
H760       H    0.6408332705    0.7724534007    1.0163070128
H761       H    0.6077899561    0.7994181105    1.0601613332
H762       H    0.6760821234    0.7643248360    1.1331571139
C743       C    0.2104306451    0.6338375461    0.9265955955
C744       C    0.2310372235    0.6609774123    0.9179851908
C745       C    0.2361407566    0.6691576146    0.8841810515
C746       C    0.2206377113    0.6501979507    0.8589873169
C747       C    0.2000311328    0.6230580845    0.8675977215
C748       C    0.1949275998    0.6148778822    0.9014018608
H749       H    0.2066527051    0.6277820716    0.9516194389
H750       H    0.2513938342    0.6892467060    0.8778065908
H751       H    0.2244156513    0.6562534252    0.8339634735
H752       H    0.1796745222    0.5947887908    0.9077763216
C733       C    0.3204837162    0.7874855417    1.0543341108
C734       C    0.3228182360    0.7527564139    1.0494515665
C735       C    0.3441132456    0.7335300742    1.0697621459
C736       C    0.3630737353    0.7490328621    1.0949552697
C737       C    0.3607392154    0.7837619899    1.0998378141
C738       C    0.3394442059    0.8029883297    1.0795272346
H739       H    0.3047198780    0.8017180270    1.0392990065
H740       H    0.3458419228    0.7078230887    1.0661487467
H741       H    0.3788375735    0.7348003769    1.1099903740
H742       H    0.3377155287    0.8286953151    1.0831406338
C723       C    0.2341091964    0.6259383682    1.0495310006
C724       C    0.2310193005    0.6609525275    1.0494729161
C725       C    0.2124203773    0.6769936145    1.0746211408
C726       C    0.1969113500    0.6580205423    1.0998274501
C727       C    0.2000012458    0.6230063831    1.0998855347
C728       C    0.2186001691    0.6069652960    1.0747373099
H729       H    0.2478772305    0.6140637973    1.0309147823
H730       H    0.2101326587    0.7029114784    1.0745789427
H731       H    0.1831433159    0.6698951133    1.1184436685
H732       H    0.2208878876    0.5810474322    1.0747795080
C713       C    0.3437535780    0.7334838884    0.8973176814
C714       C    0.3228416725    0.7527749124    0.9179649099
C715       C    0.3209034895    0.7875751537    0.9134064665
C716       C    0.3398772120    0.8030843710    0.8882007946
C717       C    0.3607891175    0.7837933470    0.8675535661
C718       C    0.3627273005    0.7489931057    0.8721120095
H719       H    0.3451883369    0.7077226708    0.9006921135
H720       H    0.3054245100    0.8018554024    0.9286893274
H721       H    0.3384424531    0.8288455886    0.8848263625
H722       H    0.3782062800    0.7347128570    0.8568291487
C703       C    0.6472582879    0.2178408805    0.8651501654
C704       C    0.6394159913    0.1836666995    0.8675918992
C705       C    0.6505298252    0.1649997767    0.8952272855
C706       C    0.6694859557    0.1805070349    0.9204209382
C707       C    0.6773282523    0.2146812159    0.9179792044
C708       C    0.6662144184    0.2333481387    0.8903438181
H709       H    0.6390311641    0.2316592519    0.8446928015
H710       H    0.6447253368    0.1397035787    0.8970355228
H711       H    0.6777130794    0.1666886635    0.9408783021
H712       H    0.6720189068    0.2586443368    0.8885355808
C693       C    0.8034947927    0.3026376597    0.9116871846
C694       C    0.7691200922    0.3064874299    0.9179499342
C695       C    0.7502520283    0.3293080133    0.8990032027
C696       C    0.7657586648    0.3482788265    0.8737937215
C697       C    0.8001333653    0.3444290564    0.8675309719
C698       C    0.8190014292    0.3216084730    0.8864777035
H699       H    0.8174620607    0.2857445006    0.9257126872
H700       H    0.7248074000    0.3321583216    0.9036382681
H701       H    0.7517913967    0.3651719856    0.8597682190
H702       H    0.8444460575    0.3187581646    0.8818426381
C683       C    0.7933036898    0.2916459381    1.0701965304
C684       C    0.7691152139    0.3064622382    1.0494380903
C685       C    0.7604369189    0.3402349376    1.0538714476
C686       C    0.7759470998    0.3591913369    1.0790632450
C687       C    0.8001355757    0.3443750368    1.0998216851
C688       C    0.8088138707    0.3106023374    1.0953883278
H689       H    0.7997278822    0.2666453683    1.0669146945
H690       H    0.7425324204    0.3512029791    1.0385062643
H691       H    0.7695229074    0.3841919067    1.0823450809
H692       H    0.8267183692    0.2996342959    1.1107535111
C673       C    0.6896416437    0.2131539980    1.0823438052
C674       C    0.6773052566    0.2146672607    1.0494704910
C675       C    0.6459978070    0.2006714344    1.0418049303
C676       C    0.6270267445    0.1851623453    1.0670126838
C677       C    0.6393631316    0.1836490826    1.0998859980
C678       C    0.6706705812    0.1976449089    1.1075515587
H679       H    0.7128172882    0.2235145448    1.0880183112
H680       H    0.6368654663    0.2017911032    1.0174719774
H681       H    0.6038511000    0.1748017985    1.0613381778
H682       H    0.6798029219    0.1965252401    1.1318845116
C663       C    0.1979233283    0.3177568042    1.0450257776
C664       C    0.2308799226    0.3063288089    1.0493716019
C665       C    0.2483340925    0.3138775582    1.0789194301
C666       C    0.2328316683    0.3328543029    1.1041214342
C667       C    0.1998750741    0.3442822982    1.0997756099
C668       C    0.1824209041    0.3367335489    1.0702277817
H669       H    0.1850027090    0.3121687690    1.0231527099
H670       H    0.2727289988    0.3054188356    1.0821371289
H671       H    0.2457522876    0.3384423381    1.1259945019
H672       H    0.1580259978    0.3451922715    1.0670100829
C653       C    0.3520242347    0.1970173094    0.9262283323
C654       C    0.3227128175    0.2145438922    0.9178987292
C655       C    0.3123871368    0.2165759801    0.8843664399
C656       C    0.3313728733    0.2010814851    0.8591637538
C657       C    0.3606842905    0.1835549022    0.8674933568
C658       C    0.3710099712    0.1815228143    0.9010256461
H659       H    0.3596679204    0.1955130365    0.9510509360
H660       H    0.2906906031    0.2295491588    0.8781998361
H661       H    0.3237291875    0.2025857580    0.8343411500
H662       H    0.3927065048    0.1685496357    0.9071922499
C643       C    0.2432968177    0.3053779496    0.8850317811
C644       C    0.2308972594    0.3063540336    0.9179103451
C645       C    0.2029977771    0.3263164456    0.9255905006
C646       C    0.1874978530    0.3453027735    0.9003920921
C647       C    0.1998974113    0.3443266895    0.8675135280
C648       C    0.2277968936    0.3243642776    0.8598333726
H649       H    0.2639496813    0.2906005797    0.8793464712
H650       H    0.1938187852    0.3270395712    0.9499273399
H651       H    0.1668449895    0.3600801434    0.9060774020
H652       H    0.2369758855    0.3236411519    0.8354965333
C633       C    0.3067525718    0.2013893274    1.0778161304
C634       C    0.3226933516    0.2145112080    1.0493627184
C635       C    0.3576110877    0.2121263283    1.0461078136
C636       C    0.3765880440    0.1966195679    1.0713063208
C637       C    0.3606472641    0.1834976873    1.0997597328
C638       C    0.3257295280    0.1858825671    1.1030146376
H639       H    0.2809043775    0.2031547579    1.0802256053
H640       H    0.3694115014    0.2218390222    1.0250465961
H641       H    0.4024362382    0.1948541375    1.0688968458
H642       H    0.3139291144    0.1761698732    1.1240758551
C623       C    0.6432413952    0.9148105982    0.7455836836
C624       C    0.6774596095    0.9180557547    0.7529117697
C625       C    0.6927014016    0.8961004813    0.7757459427
C626       C    0.6737249794    0.8709000513    0.7912520296
C627       C    0.6395067651    0.8676548947    0.7839239435
C628       C    0.6242649730    0.8896101682    0.7610897705
H629       H    0.6319585102    0.9310632032    0.7286804646
H630       H    0.7180300846    0.8985018398    0.7811708886
H631       H    0.6850078644    0.8546474463    0.8081552486
H632       H    0.5989362900    0.8872088096    0.7556648246
C613       C    0.7656097392    0.9176158072    0.6261440170
C614       C    0.7692732371    0.9180539811    0.6610964025
C615       C    0.7884417462    0.8932917506    0.6770717565
C616       C    0.8039467574    0.8680913462    0.6580947249
C617       C    0.8002832595    0.8676531724    0.6231423394
C618       C    0.7811147504    0.8924154029    0.6071669855
H619       H    0.7514200636    0.9359462895    0.6143181056
H620       H    0.7911540610    0.8936153017    0.7029438936
H621       H    0.8181364330    0.8497608639    0.6699206363
H622       H    0.7784024356    0.8920918518    0.5812948483
C603       C    0.6898420903    1.0658063553    0.7814429505
C604       C    0.6774384166    1.0495211400    0.7528846326
C605       C    0.6460499405    1.0584382518    0.7398229524
C606       C    0.6270651382    1.0836405789    0.7553195901
C607       C    0.6394688119    1.0999257943    0.7838779080
C608       C    0.6708572880    1.0910086824    0.7969395882
H609       H    0.7130777154    1.0592053764    0.7911119865
H610       H    0.6368677920    1.0463842755    0.7186837736
H611       H    0.6038295131    1.0902415578    0.7456505541
H612       H    0.6800394365    1.1030626588    0.8180787670
C593       C    0.7777767212    1.0435184313    0.6275031152
C594       C    0.7692529151    1.0495192660    0.6610716100
C595       C    0.7762284609    1.0807204450    0.6756546831
C596       C    0.7917278128    1.1059207892    0.6566692614
C597       C    0.8002516189    1.0999199544    0.6231007667
C598       C    0.7932760731    1.0687187755    0.6085176936
H599       H    0.7726130054    1.0204214546    0.6167078533
H600       H    0.7699193907    1.0851632290    0.7005024251
H601       H    0.7968915286    1.1290177658    0.6674645233
H602       H    0.7995851433    1.0642759915    0.5836699516
C583       C    0.6718593836    1.0485247941    0.1799626090
C584       C    0.6773071541    1.0494713824    0.2146706049
C585       C    0.6637833360    1.0756249494    0.2338693323
C586       C    0.6448117474    1.1008319280    0.2183600639
C587       C    0.6393639770    1.0998853397    0.1836520680
C588       C    0.6528877951    1.0737317727    0.1644533406
H589       H    0.6818705217    1.0291643614    0.1657505640
H590       H    0.6678153284    1.0763264384    0.2595606751
H591       H    0.6348006094    1.1201923607    0.2325721089
H592       H    0.6488558027    1.0730302838    0.1387619978
C573       C    0.7878501925    1.0409627464    0.3349627324
C574       C    0.7691133182    1.0494476518    0.3064632434
C575       C    0.7658836103    1.0831260669    0.2969208484
C576       C    0.7813907766    1.1083195766    0.3158779425
C577       C    0.8001276509    1.0998346711    0.3443774315
C578       C    0.8033573589    1.0661562560    0.3539198265
H579       H    0.7902410153    1.0160319716    0.3420265832
H580       H    0.7520145403    1.0894076296    0.2758253259
H581       H    0.7789999538    1.1332503514    0.3088140917
H582       H    0.8172264288    1.0598746933    0.3750153490
C563       C    0.6423261375    0.9178614964    0.2178734899
C564       C    0.6773307330    0.9179818548    0.2146855640
C565       C    0.6933767202    0.8929093888    0.1959911182
C566       C    0.6744181120    0.8677165645    0.1804845985
C567       C    0.6394135165    0.8675962061    0.1836725244
C568       C    0.6233675293    0.8926686721    0.2023669701
H569       H    0.6304479392    0.9364216336    0.2317122354
H570       H    0.7192875052    0.8929976841    0.1936308351
H571       H    0.6862963103    0.8491564273    0.1666458529
H572       H    0.5974567443    0.8925803768    0.2047272532
C553       C    0.7807815548    0.8887684691    0.2907563829
C554       C    0.7691281588    0.9179609311    0.3064882625
C555       C    0.7729862408    0.9219481605    0.3411922189
C556       C    0.7884977187    0.8967429278    0.3601642956
C557       C    0.8001511146    0.8675504658    0.3444324159
C558       C    0.7962930326    0.8635632364    0.3097284596
H559       H    0.7779255720    0.8858168837    0.2650664411
H560       H    0.7643605606    0.9435564433    0.3528379986
H561       H    0.7913537014    0.8996945131    0.3858542373
H562       H    0.8049187128    0.8419549536    0.2980826799
C543       C    0.2499663139    1.0764646939    0.6487443378
C544       C    0.2310362579    1.0494744691    0.6609373975
C545       C    0.1965972625    1.0476925301    0.6541603602
C546       C    0.1810883231    1.0729008159    0.6351902632
C547       C    0.2000183791    1.0998910407    0.6229972034
C548       C    0.2344573745    1.1016729796    0.6297742407
H549       H    0.2754601157    1.0777837915    0.6537611056
H550       H    0.1825842125    1.0277144053    0.6631854053
H551       H    0.1555945213    1.0715817183    0.6301734953
H552       H    0.2484704246    1.1216511045    0.6207491957
C533       C    0.3443723305    1.0413791239    0.7793088985
C534       C    0.3228273078    1.0494505402    0.7527399124
C535       C    0.3202386984    1.0827168593    0.7416767540
C536       C    0.3391951117    1.1079117621    0.7571825816
C537       C    0.3607401344    1.0998403458    0.7837515676
C538       C    0.3633287438    1.0665740267    0.7948147261
H539       H    0.3462885738    1.0167534071    0.7874985093
H540       H    0.3042910673    1.0886923458    0.7220101348
H541       H    0.3372788684    1.1325374789    0.7489929707
H542       H    0.3792763749    1.0605985402    0.8144813453
C523       C    0.3099791937    0.9009558349    0.7807079382
C524       C    0.3228517984    0.9179616848    0.7527618020
C525       C    0.3546952244    0.9097623610    0.7403288044
C526       C    0.3736660457    0.8845571874    0.7558419431
C527       C    0.3607934410    0.8675513375    0.7837880793
C528       C    0.3289500150    0.8757506612    0.7962210768
H529       H    0.2864067875    0.9070254641    0.7899115857
H530       H    0.3642244884    0.9223497712    0.7196427802
H531       H    0.3972384520    0.8784875581    0.7466382955
H532       H    0.3194207510    0.8631632511    0.8169071010
C513       C    0.1972400260    0.9211309684    0.6518900219
C514       C    0.2310489216    0.9179848003    0.6609638104
C515       C    0.2493501134    0.8896455481    0.6510803791
C516       C    0.2338424098    0.8644524640    0.6321231593
C517       C    0.2000335143    0.8675986321    0.6230493708
C518       C    0.1817323224    0.8959378843    0.6329328021
H519       H    0.1836923905    0.9421093759    0.6592063282
H520       H    0.2743759169    0.8873158688    0.6577964524
H521       H    0.2473900454    0.8434740565    0.6248068530
H522       H    0.1567065189    0.8982675637    0.6262167288
C503       C    0.3568771591    0.9144803687    0.2220661975
C504       C    0.3227146259    0.9178994238    0.2145462291
C505       C    0.3075388904    0.8961173171    0.1915301703
C506       C    0.3265256879    0.8709161554    0.1760340798
C507       C    0.3606882211    0.8674971004    0.1835540483
C508       C    0.3758639567    0.8892792070    0.2065701071
H509       H    0.3681111452    0.9306047853    0.2391040592
H510       H    0.2822514245    0.8986474002    0.1859631880
H511       H    0.3152917019    0.8547917388    0.1589962181
H512       H    0.4011514226    0.8867491239    0.2121370894
C493       C    0.2376796914    0.9150937554    0.3407311261
C494       C    0.2309032357    0.9178981255    0.3063579487
C495       C    0.2086312929    0.8954998043    0.2909702326
C496       C    0.1931358058    0.8702971129    0.3099556940
C497       C    0.1999122615    0.8674927427    0.3443288715
C498       C    0.2221842043    0.8898910640    0.3597165875
H499       H    0.2541667140    0.9316743308    0.3521220328
H500       H    0.2036146796    0.8975748803    0.2655268418
H501       H    0.1766487832    0.8537165374    0.2985647873
H502       H    0.2272008176    0.8878159880    0.3851599783
C483       C    0.2032710303    1.0415937407    0.3266652782
C484       C    0.2308761221    1.0493624911    0.3063326595
C485       C    0.2429759030    1.0823312195    0.3049773936
C486       C    0.2274705920    1.1075311977    0.3239547463
C487       C    0.1998655001    1.0997624473    0.3442873650
C488       C    0.1877657193    1.0667937189    0.3456426310
H489       H    0.1943140497    1.0171883184    0.3276685270
H490       H    0.2634094768    1.0880826643    0.2899272186
H491       H    0.2364275726    1.1319366200    0.3229514975
H492       H    0.1673321455    1.0610422741    0.3606928060
C473       C    0.3482674081    1.0655697110    0.2323400056
C474       C    0.3226911985    1.0493629738    0.2145147613
C475       C    0.3160929917    1.0583545009    0.1811818436
C476       C    0.3350709946    1.0835527652    0.1656741701
C477       C    0.3606472042    1.0997595023    0.1834994144
C478       C    0.3672454110    1.0907679752    0.2168323321
H479       H    0.3531517950    1.0589136454    0.2570150226
H480       H    0.2971613634    1.0463586163    0.1679866062
H481       H    0.3301866077    1.0902088307    0.1409991531
H482       H    0.3861770393    1.1027638599    0.2300275695
C463       C   -0.0578984908    0.7807841809    0.6411034876
C464       C   -0.0655750450    0.7529018375    0.6610900532
C465       C   -0.0984525293    0.7405255259    0.6621021987
C466       C   -0.1236534593    0.7560315577    0.6431277787
C467       C   -0.1159769052    0.7839139010    0.6231412132
C468       C   -0.0830994209    0.7962902126    0.6221290676
H469       H   -0.0335606128    0.7899458661    0.6403542371
H470       H   -0.1041357279    0.7198867228    0.6768962156
H471       H   -0.1479913373    0.7468698724    0.6438770293
H472       H   -0.0774162223    0.8169290157    0.6073350508
C453       C   -0.0849461028    0.6387655921    0.7339210277
C454       C   -0.0655679686    0.6610899666    0.7529108382
C455       C   -0.0713873833    0.6644390536    0.7874125824
C456       C   -0.0965849324    0.6454637660    0.8029245161
C457       C   -0.1159630666    0.6231393916    0.7839347056
C458       C   -0.1101436518    0.6197903046    0.7494329614
H459       H   -0.0806382243    0.6362863979    0.7083807754
H460       H   -0.0570439414    0.6809635822    0.8014698645
H461       H   -0.1008928108    0.6479429603    0.8284647683
H462       H   -0.1244870937    0.6032657760    0.7353756792
C443       C    0.0641282860    0.6259660869    0.7526467441
C444       C    0.0658927244    0.6610693866    0.7528793807
C445       C    0.0928589825    0.6771901662    0.7686111910
C446       C    0.1180608023    0.6582076462    0.7841103648
C447       C    0.1162963639    0.6231043465    0.7838777283
C448       C    0.0893301058    0.6069835669    0.7681459179
H449       H    0.0441662507    0.6140325228    0.7410011182
H450       H    0.0941658669    0.7031740140    0.7687838857
H451       H    0.1380228376    0.6701412103    0.7957559907
H452       H    0.0880232213    0.5809997191    0.7679732232
C433       C    0.0809095958    0.7356438453    0.6343654868
C434       C    0.0658902807    0.7528805891    0.6610654824
C435       C    0.0760727822    0.7856172563    0.6687827082
C436       C    0.1012745988    0.8011171797    0.6497999383
C437       C    0.1162939139    0.7838804360    0.6230999426
C438       C    0.1061114124    0.7511437688    0.6153827168
H439       H    0.0733718999    0.7114102085    0.6286527352
H440       H    0.0649558607    0.7983768688    0.6885461943
H441       H    0.1088122947    0.8253508165    0.6555126898
H442       H    0.1172283339    0.7383841563    0.5956192307
C423       C    0.0582222810    0.2008766352    0.6295270818
C424       C    0.0658397263    0.2146771082    0.6609331021
C425       C    0.0986653301    0.2129669041    0.6733699813
C426       C    0.1238734886    0.1974562269    0.6544008401
C427       C    0.1162560433    0.1836557539    0.6229948199
C428       C    0.0834304395    0.1853659581    0.6105579407
H429       H    0.0339228080    0.2021426306    0.6203205609
H430       H    0.1043047749    0.2231819110    0.6966169995
H431       H    0.1481729615    0.1961902315    0.6636073611
H432       H    0.0777909947    0.1751509511    0.5873109225
C413       C    0.0995081898    0.3011999425    0.7442611162
C414       C    0.0658037965    0.3064717245    0.7527439395
C415       C    0.0572899414    0.3306989391    0.7767404336
C416       C    0.0824804797    0.3496543718    0.7922541044
C417       C    0.1161848730    0.3443825898    0.7837712811
C418       C    0.1246987281    0.3201553752    0.7597747870
H419       H    0.1058106540    0.2832655109    0.7264974778
H420       H    0.0323417998    0.3346018601    0.7830201487
H421       H    0.0761780155    0.3675888034    0.8100177429
H422       H    0.1496468697    0.3162524542    0.7534950720
C403       C   -0.0587902972    0.3239262767    0.7824691807
C404       C   -0.0656854584    0.3064952833    0.7527472684
C405       C   -0.0977899999    0.3080333579    0.7385342173
C406       C   -0.1229993803    0.3270024258    0.7540430784
C407       C   -0.1161042191    0.3444334192    0.7837649906
C408       C   -0.0839996776    0.3428953447    0.7979780417
H409       H   -0.0350245977    0.3227877021    0.7929905302
H410       H   -0.1028947898    0.2951310472    0.7165337137
H411       H   -0.1467650799    0.3281410005    0.7435217288
H412       H   -0.0788948878    0.3557976554    0.8199785453
C393       C   -0.0586077464    0.2030921455    0.6285297433
C394       C   -0.0656483071    0.2146878538    0.6609539708
C395       C   -0.0978808042    0.2107725813    0.6744226913
C396       C   -0.1230727407    0.1952616005    0.6554671843
C397       C   -0.1160321800    0.1836658922    0.6230429568
C398       C   -0.0837996829    0.1875811647    0.6095742363
H399       H   -0.0347473265    0.2059904642    0.6185593917
H400       H   -0.1030932222    0.2193555595    0.6984234156
H401       H   -0.1469331606    0.1923632819    0.6654375359
H402       H   -0.0785872649    0.1789981866    0.5855735120
C383       C   -0.0822585102    0.6146253304    0.1788905268
C384       C   -0.1160502022    0.6230436371    0.1836839836
C385       C   -0.1246469937    0.6504140892    0.2039880462
C386       C   -0.0994520933    0.6693662345    0.2194986520
C387       C   -0.0656604013    0.6609479278    0.2147051953
C388       C   -0.0570636098    0.6335774757    0.1944011326
H389       H   -0.0758946516    0.5943640866    0.1638602467
H390       H   -0.1496597561    0.6566461561    0.2075367885
H391       H   -0.1058159519    0.6896274782    0.2345289322
H392       H   -0.0320508474    0.6273454088    0.1908523904
C373       C    0.0709557598    0.7432757097    0.3399473758
C374       C    0.0658098322    0.7527261373    0.3064847519
C375       C    0.0858584702    0.7776869754    0.2919746082
C376       C    0.1110530358    0.7931973858    0.3109270885
C377       C    0.1161989634    0.7837469582    0.3443897125
C378       C    0.0961503255    0.7587861202    0.3588998561
H379       H    0.0561145603    0.7247982062    0.3506886510
H380       H    0.0820501073    0.7846829382    0.2672052337
H381       H    0.1258942354    0.8116748893    0.3001858134
H382       H    0.0999586883    0.7517901573    0.3836692306
C363       C    0.1111316308    0.6564756644    0.1742476305
C364       C    0.1162430178    0.6229921942    0.1836556704
C365       C    0.0961471391    0.6084744977    0.2085800339
C366       C    0.0709398733    0.6274402715    0.2240963576
C367       C    0.0658284863    0.6609237418    0.2146883177
C368       C    0.0859243650    0.6754414382    0.1897639542
H369       H    0.1260078007    0.6672225306    0.1557971276
H370       H    0.0999299337    0.5836896926    0.2155446204
H371       H    0.0560637034    0.6166934053    0.2425468605
H372       H    0.0821415704    0.7002262433    0.1827993678
C353       C   -0.0583561126    0.7815665905    0.3252309236
C354       C   -0.0656778328    0.7527455958    0.3065088567
C355       C   -0.0982054206    0.7394422924    0.3067532371
C356       C   -0.1234112883    0.7549599839    0.3257196844
C357       C   -0.1160895681    0.7837809786    0.3444417512
C358       C   -0.0835619803    0.7970842819    0.3441973709
H359       H   -0.0342772489    0.7914144904    0.3250500186
H360       H   -0.1036259612    0.7181086735    0.2928952375
H361       H   -0.1474901520    0.7451120840    0.3259005893
H362       H   -0.0781414397    0.8184179008    0.3580553705
C343       C   -0.0649320037    0.1797947588    0.3115861031
C344       C   -0.0657310270    0.2145453217    0.3063541637
C345       C   -0.0917314632    0.2337982225    0.3201073785
C346       C   -0.1169328761    0.2183005606    0.3390925328
C347       C   -0.1161338529    0.1835499978    0.3443244722
C348       C   -0.0901334167    0.1642970969    0.3305712573
H349       H   -0.0456849276    0.1655426114    0.3014051519
H350       H   -0.0923237202    0.2595210750    0.3162351508
H351       H   -0.1361799523    0.2325527080    0.3492734840
H352       H   -0.0895411597    0.1385742445    0.3344434850
C333       C    0.1209146670    0.3319791839    0.2160947008
C334       C    0.1161381165    0.3442856286    0.1835161568
C335       C    0.0861596501    0.3376157825    0.1664412133
C336       C    0.0609577342    0.3186394916    0.1819448139
C337       C    0.0657342848    0.3063330468    0.2145233579
C338       C    0.0957127512    0.3130028930    0.2315983014
H339       H    0.1431065188    0.3369166024    0.2287345940
H340       H    0.0826231156    0.3467247581    0.1423261505
H341       H    0.0387658825    0.3137020730    0.1693049207
H342       H    0.0992492857    0.3038939174    0.2557133643
C323       C   -0.0963188035    0.3117380929    0.2310028526
C324       C   -0.0657272634    0.3063550425    0.2145395161
C325       C   -0.0603352844    0.3199559376    0.1825750786
C326       C   -0.0855348455    0.3389398830    0.1670739775
C327       C   -0.1161263857    0.3443229335    0.1835373139
C328       C   -0.1215183646    0.3307220384    0.2155017515
H329       H   -0.1003102685    0.3016698978    0.2546648388
H330       H   -0.0376913644    0.3159718532    0.1703879639
H331       H   -0.0815433805    0.3490080781    0.1434119913
H332       H   -0.1441622846    0.3347061227    0.2276888662
C313       C    0.0681670155    0.2208543791    0.3408183282
C314       C    0.0657306187    0.2145171411    0.3063355804
C315       C    0.0884934514    0.1926727651    0.2908286077
C316       C    0.1136926810    0.1771656270    0.3098043828
C317       C    0.1161290779    0.1835028649    0.3442871306
C318       C    0.0933662451    0.2053472410    0.3597941033
H319       H    0.0513166069    0.2370248912    0.3522975159
H320       H    0.0866907596    0.1879812728    0.2653041096
H321       H    0.1305430897    0.1609951149    0.2983251952
H322       H    0.0951689370    0.2100387333    0.3853186014
loop_
_geom_bond_atom_site_label_1
_geom_bond_atom_site_label_2
_geom_bond_distance
_geom_bond_site_symmetry_2
_ccdc_geom_bond_type
N304       C305 1.540       .   A
C303       N304 1.540       .   A
C893       C898 1.540       .   A
C897       C898 1.540       .   A
C898       H902 1.140       .   S
C305       N306 1.540       .   A
C301       N306 1.540       .   A
C295       N300 1.540       .   A
C299       N300 1.540       .   A
N268       C269 1.540       .   A
C267       N268 1.540       .   A
N302       C303 1.540       .   A
C301       N302 1.540       .   A
C265       N266 1.540       .   A
N266       C267 1.540       .   A
C893       H899 1.140       .   S
C893       C894 1.540       .   A
C259       N264 1.540       .   A
C263       N264 1.540       .   A
C261       N262 1.540       .   A
N262       C263 1.540       .   A
C307       N308 1.540       .   A
N308       C309 1.540       .   A
N260       C261 1.540       .   A
C259       N260 1.540       .   A
C895       C896 1.540       .   A
C895       H900 1.140       .   S
C894       C895 1.540       .   A
C508       H512 1.140       .   S
C505       H510 1.140       .   S
C506       H511 1.140       .   S
C513       H519 1.140       .   S
C884       C885 1.540       .   A
C885       C886 1.540       .   A
C885       H890 1.140       .   S
C693       H699 1.140       .   S
O29         C39 1.250       .   A
O29        Cu37 1.951       .   S
O22        Cu24 1.951       .   S
O22         C25 1.250       .   A
C685       H690 1.140       .   S
O20        Cu24 1.951       .   S
O20         C27 1.251       .   A
O21        Cu24 1.951       .   S
O21         C26 1.250       .   A
C563       C568 1.540       .   A
C563       H569 1.140       .   S
C563       C564 1.540       .   A
C249       N250 1.540       .   A
N248       C249 1.540       .   A
C249       C617 1.539       .   S
C566       H571 1.140       .   S
C566       C567 1.540       .   A
C565       C566 1.540       .   A
O48        Cu52 1.951       .   S
O49        Cu52 1.951       .   S
O50        Cu52 1.951       .   S
Cu51       Cu52 2.630       .   S
O47        Cu52 1.951       .   S
O43        Cu51 1.951       .   S
O44        Cu51 1.951       .   S
O45        Cu51 1.951       .   S
O46        Cu51 1.951       .   S
C565       H570 1.140       .   S
C564       C565 1.540       .   A
N242       C243 1.540       .   A
C243       N244 1.540       .   A
C243       C797 1.440       .   S
C241       N242 1.540       .   A
C241       N246 1.540       .   A
C241       C547 1.540   1_545   S
C375       H380 1.140       .   S
C247       N252 1.540       .   A
C247       N248 1.540       .   A
C247       C467 1.539   1_655   S
C245       N246 1.540       .   A
N244       C245 1.540       .   A
C245       C427 1.540       .   S
C515       H520 1.140       .   S
C833       H839 1.140       .   S
C896       H901 1.140       .   S
C896       C897 1.540       .   A
C403       H409 1.140       .   S
C826       H831 1.140       .   S
O144      Cu149 1.951       .   S
Cu149     Cu150 2.630       .   S
O141      Cu149 1.951       .   S
O142      Cu149 1.951       .   S
O143      Cu149 1.951       .   S
C897       C269 1.440       .   S
C894       C231 1.440       .   S
C804       C805 1.540       .   A
C805       C806 1.540       .   A
C805       H810 1.140       .   S
C804       C177 1.440       .   S
C803       C804 1.540       .   A
C251       C807 1.440       .   S
C806       C807 1.540       .   A
C807       C808 1.540       .   A
C806       H811 1.140       .   S
C803       C808 1.540       .   A
C803       H809 1.140       .   S
C458       H462 1.140       .   S
C455       H460 1.140       .   S
C456       H461 1.140       .   S
C488       H492 1.140       .   S
C483       C488 1.540       .   A
C487       C488 1.540       .   A
C338       H342 1.140       .   S
C336       H341 1.140       .   S
C523       H529 1.140       .   S
O45         C55 1.250       .   A
C328       H332 1.140       .   S
C323       C328 1.540       .   A
C327       C328 1.540       .   A
O59         C69 1.250       .   A
O59        Cu65 1.951       .   S
O58         C68 1.250       .   A
O58        Cu65 1.951       .   S
C845       H850 1.140       .   S
O50         C53 1.250       .   A
O57         C67 1.250       .   A
O57        Cu65 1.951       .   S
C765       H770 1.140       .   S
C764       C765 1.540       .   A
C765       C766 1.540       .   A
C475       H480 1.140       .   S
C766       H771 1.140       .   S
C766       C767 1.540       .   A
C307       C767 1.539       .   S
C767       C768 1.540       .   A
C478       H482 1.140       .   S
O162      Cu164 1.951       .   S
O162       C165 1.250       .   A
C664       C665 1.540       .   A
C663       C664 1.540       .   A
C664       C125 1.539       .   S
O160       C167 1.251       .   A
O160      Cu164 1.951       .   S
O161       C166 1.250       .   A
O161      Cu164 1.951       .   S
C747       C748 1.540       .   A
C743       C748 1.540       .   A
C748       H752 1.140       .   S
C746       C747 1.540       .   A
C745       C746 1.540       .   A
C746       H751 1.140       .   S
C747       C229 1.540       .   S
C151       C744 1.540       .   S
C744       C745 1.540       .   A
C743       C744 1.540       .   A
C745       H750 1.140       .   S
C743       H749 1.140       .   S
N284       C285 1.540       .   A
C283       N284 1.540       .   A
N286       C287 1.540       .   A
C285       N286 1.540       .   A
N280       C281 1.540       .   A
C279       N280 1.540       .   A
C277       N282 1.540       .   A
C281       N282 1.540       .   A
C485       H490 1.140       .   S
C484       C485 1.540       .   A
C485       C486 1.540       .   A
C287       N288 1.540       .   A
C283       N288 1.540       .   A
C315       H320 1.140       .   S
C314       C315 1.540       .   A
C315       C316 1.540       .   A
O30         C40 1.250       .   A
O35         C40 1.250       .   A
C40        C424 1.540       .   S
O31         C41 1.250       .   A
C41        C414 1.540       .   S
O34         C41 1.251       .   A
O33         C42 1.250       .   A
O32         C42 1.250       .   A
C42        C394 1.540       .   S
C758       H762 1.140       .   S
C763       H769 1.140       .   S
C635       H640 1.140       .   S
C636       H641 1.140       .   S
O75        Cu80 1.951       .   S
O77        Cu80 1.951       .   S
O76        Cu80 1.951       .   S
Cu79       Cu80 2.630       .   S
O78        Cu80 1.951       .   S
C597       C185 1.539   1_565   S
C596       C597 1.540       .   A
C597       C598 1.540       .   A
C596       H601 1.140       .   S
C595       C596 1.540       .   A
C595       H600 1.140       .   S
C594       C595 1.540       .   A
C593       C594 1.540       .   A
C594       C112 1.539       .   S
C593       C598 1.540       .   A
C598       H602 1.140       .   S
C753       C758 1.540       .   A
C757       C758 1.540       .   A
C698       H702 1.140       .   S
C693       C698 1.540       .   A
C697       C698 1.540       .   A
C267       C647 1.539       .   S
C647       C648 1.540       .   A
C646       C647 1.540       .   A
C343       C348 1.540       .   A
C348       H352 1.140       .   S
C347       C348 1.540       .   A
C613       C618 1.540       .   A
C613       H619 1.140       .   S
C613       C614 1.540       .   A
C343       H349 1.140       .   S
C343       C344 1.540       .   A
C693       C694 1.540       .   A
C694       C140 1.540       .   S
C694       C695 1.540       .   A
C695       H700 1.140       .   S
C695       C696 1.540       .   A
C696       H701 1.140       .   S
C696       C697 1.540       .   A
C697       C223 1.540       .   S
C486       H491 1.140       .   S
C686       H691 1.140       .   S
C493       H499 1.140       .   S
C616       C617 1.540       .   A
C617       C618 1.540       .   A
C688       H692 1.140       .   S
C526       C527 1.540       .   A
C525       C526 1.540       .   A
C526       H531 1.140       .   S
C793       H799 1.140       .   S
C524        C81 1.540       .   S
C524       C525 1.540       .   A
C523       C524 1.540       .   A
C525       H530 1.140       .   S
C798       H802 1.140       .   S
C289       N294 1.540       .   A
C289       C537 1.540   1_545   S
C289       N290 1.540       .   A
C287       C877 1.440       .   S
C786       H791 1.140       .   S
C285       C364 1.540       .   S
C283       C727 1.540   1_554   S
C457       C281 1.539   1_455   S
C447       C448 1.540       .   A
C448       H452 1.140       .   S
C443       C448 1.540       .   A
C666       H671 1.140       .   S
C444       C445 1.540       .   A
C445       C446 1.540       .   A
C445       H450 1.140       .   S
C55        C444 1.539       .   S
C443       C444 1.540       .   A
C447       C233 1.539       .   S
C446       C447 1.540       .   A
O7         Cu10 1.951       .   S
O6         Cu10 1.951       .   S
O5         Cu10 1.951       .   S
Cu9        Cu10 2.630       .   S
O8         Cu10 1.951       .   S
O102       C112 1.250       .   A
O103       C112 1.250       .   A
O101       C111 1.250       .   A
O104       C111 1.251       .   A
C111       C624 1.539       .   S
O100       C110 1.250       .   A
C614       C110 1.539       .   S
O105       C110 1.250       .   A
O103      Cu108 1.951       .   S
O104      Cu108 1.951       .   S
O105      Cu108 1.951       .   S
O106      Cu108 1.951       .   S
Cu107     Cu108 2.630       .   S
C233       N234 1.540       .   A
C229       N234 1.540       .   A
C843       C848 1.540       .   A
C843       C844 1.540       .   A
C843       H849 1.140       .   S
N236       C237 1.540       .   A
C235       N236 1.540       .   A
O88        Cu93 1.951       .   S
O88         C98 1.250       .   A
N230       C231 1.540       .   A
C229       N230 1.540       .   A
C847       C848 1.540       .   A
C309       C847 1.440       .   S
C846       C847 1.540       .   A
N232       C233 1.540       .   A
C231       N232 1.540       .   A
O85        Cu93 1.951       .   S
O85         C95 1.250       .   A
O86        Cu93 1.951       .   S
O86         C96 1.250       .   A
O87        Cu93 1.951       .   S
O87         C97 1.250       .   A
N238       C239 1.540       .   A
C237       N238 1.540       .   A
O100      Cu107 1.951       .   S
O101      Cu107 1.951       .   S
O102      Cu107 1.951       .   S
O99       Cu107 1.951       .   S
C418       H422 1.140       .   S
C415       H420 1.140       .   S
C416       H421 1.140       .   S
C567       C568 1.540       .   A
C568       H572 1.140       .   S
C376       H381 1.140       .   S
C423       H429 1.140       .   S
O17        Cu23 1.951       .   S
O17         C27 1.250       .   A
O16         C26 1.250       .   A
O16        Cu23 1.951       .   S
O15        Cu23 1.951       .   S
O15         C25 1.250       .   A
C755       H760 1.140       .   S
C754       C755 1.540       .   A
C755       C756 1.540       .   A
C346       H351 1.140       .   S
C346       C347 1.540       .   A
C345       C346 1.540       .   A
C623       C628 1.540       .   A
C628       H632 1.140       .   S
C627       C628 1.540       .   A
C358       H362 1.140       .   S
C536       H541 1.140       .   S
C535       H540 1.140       .   S
O19        Cu24 1.951       .   S
O19         C28 1.250       .   A
O18         C28 1.250       .   A
O18        Cu23 1.951       .   S
C773       C778 1.540       .   A
C773       H779 1.140       .   S
C773       C774 1.540       .   A
C787       C237 1.539   1_556   S
C235       N240 1.540       .   A
C235       C384 1.540   1_655   S
C239       N240 1.540       .   A
C239       C904 1.440       .   S
C567       C205 1.540       .   S
O127       C137 1.250       .   A
O127      Cu135 1.951       .   S
C795       H800 1.140       .   S
C796       H801 1.140       .   S
O120      Cu122 1.951       .   S
O120       C123 1.250       .   A
C518       H522 1.140       .   S
O128      Cu135 1.951       .   S
O128       C138 1.250       .   A
O129       C139 1.250       .   A
O129      Cu135 1.951       .   S
C834       C835 1.540       .   A
C834       C195 1.440       .   S
C833       C834 1.540       .   A
C835       H840 1.140       .   S
C835       C836 1.540       .   A
C836       C837 1.540       .   A
C836       H841 1.140       .   S
C305       C837 1.440       .   S
C837       C838 1.540       .   A
C833       C838 1.540       .   A
C623       C624 1.540       .   A
C623       H629 1.140       .   S
C564        C96 1.540       .   S
C838       H842 1.140       .   S
C624       C625 1.540       .   A
C311       C627 1.539       .   S
C626       C627 1.540       .   A
C625       C626 1.540       .   A
C626       H631 1.140       .   S
C325       H330 1.140       .   S
C326       H331 1.140       .   S
C383       H389 1.140       .   S
C453       C458 1.540       .   A
C453       H459 1.140       .   S
C453       C454 1.540       .   A
C625       H630 1.140       .   S
C333       H339 1.140       .   S
C866       H871 1.140       .   S
C865       H870 1.140       .   S
C868       H872 1.140       .   S
C575       H580 1.140       .   S
C873       H879 1.140       .   S
C456       C457 1.540       .   A
C457       C458 1.540       .   A
C723       H729 1.140       .   S
C716       H721 1.140       .   S
C715       H720 1.140       .   S
C718       H722 1.140       .   S
C825       H830 1.140       .   S
C714       C715 1.540       .   A
C715       C716 1.540       .   A
C154       C714 1.540       .   S
C713       C714 1.540       .   A
C716       C717 1.540       .   A
C717       C203 1.540       .   S
C717       C718 1.540       .   A
C713       C718 1.540       .   A
C713       H719 1.140       .   S
C496       H501 1.140       .   S
C496       C497 1.540       .   A
C495       C496 1.540       .   A
C497       C498 1.540       .   A
C497       C257 1.539       .   S
C68        C494 1.539       .   S
C494       C495 1.540       .   A
C493       C494 1.540       .   A
C828       H832 1.140       .   S
C658       H662 1.140       .   S
C657       C658 1.540       .   A
C653       C658 1.540       .   A
C309       N310 1.540       .   A
C654       C655 1.540       .   A
C653       C654 1.540       .   A
C126       C654 1.539       .   S
C307       N312 1.540       .   A
C655       C656 1.540       .   A
C656       C657 1.540       .   A
C656       H661 1.140       .   S
C303       C677 1.540   1_554   S
C301       C587 1.540   1_545   S
C884       C225 1.440       .   S
C883       C884 1.540       .   A
C808       H812 1.140       .   S
C653       H659 1.140       .   S
C606       H611 1.140       .   S
C605       H610 1.140       .   S
C608       H612 1.140       .   S
C585       H590 1.140       .   S
C586       H591 1.140       .   S
C548       H552 1.140       .   S
C547       C548 1.540       .   A
C543       C548 1.540       .   A
O36         C39 1.250       .   A
C39        C404 1.540       .   S
C753       H759 1.140       .   S
C153       C724 1.540       .   S
O146       C153 1.251       .   A
O143       C153 1.250       .   A
O147       C152 1.250       .   A
C152       C734 1.540       .   S
O142       C152 1.250       .   A
O148       C151 1.250       .   A
O141       C151 1.250       .   A
C405       H410 1.140       .   S
C404       C405 1.540       .   A
C405       C406 1.540       .   A
C403       C404 1.540       .   A
C406       C407 1.540       .   A
C407       C408 1.540       .   A
C407       C227 1.540   1_455   S
O144       C154 1.250       .   A
O145       C154 1.250       .   A
C408       H412 1.140       .   S
C403       C408 1.540       .   A
C393       C398 1.540       .   A
C393       C394 1.540       .   A
C393       H399 1.140       .   S
C395       H400 1.140       .   S
C394       C395 1.540       .   A
C395       C396 1.540       .   A
C397       C181 1.540   1_455   S
C396       C397 1.540       .   A
C397       C398 1.540       .   A
C398       H402 1.140       .   S
C533       C534 1.540       .   A
C83        C534 1.540       .   S
C534       C535 1.540       .   A
C277       N278 1.540       .   A
N278       C279 1.540       .   A
C543       H549 1.140       .   S
C269       N270 1.540       .   A
C265       N270 1.540       .   A
N272       C273 1.540       .   A
C271       N272 1.540       .   A
N274       C275 1.540       .   A
C273       N274 1.540       .   A
C275       N276 1.540       .   A
C271       N276 1.540       .   A
C495       H500 1.140       .   S
C498       H502 1.140       .   S
C857       C858 1.540       .   A
C858       H862 1.140       .   S
C853       C858 1.540       .   A
C503       H509 1.140       .   S
O90         C97 1.251       .   A
O90        Cu94 1.951       .   S
C277       C777 1.539       .   S
C327       C275 1.539   1_455   S
C273       C907 1.440       .   S
C687       C271 1.540   1_556   S
C887       C279 1.440       .   S
C67        C474 1.539       .   S
C474       C475 1.540       .   A
C473       C474 1.540       .   A
C475       C476 1.540       .   A
C476       C477 1.540       .   A
C476       H481 1.140       .   S
C477       C197 1.539   1_565   S
C477       C478 1.540       .   A
O62        Cu66 1.951       .   S
O63        Cu66 1.951       .   S
O61        Cu66 1.951       .   S
O64        Cu66 1.951       .   S
Cu65       Cu66 2.630       .   S
C577       C578 1.540       .   A
C578       H582 1.140       .   S
C573       C578 1.540       .   A
C378       H382 1.140       .   S
O60        Cu65 1.951       .   S
C574       C575 1.540       .   A
C575       C576 1.540       .   A
C95        C574 1.540       .   S
C573       C574 1.540       .   A
C259       C577 1.540   1_545   S
C576       C577 1.540       .   A
C576       H581 1.140       .   S
C473       C478 1.540       .   A
C573       H579 1.140       .   S
C463       H469 1.140       .   S
O130      Cu135 1.951       .   S
Cu135     Cu136 2.630       .   S
O131      Cu136 1.951       .   S
O133      Cu136 1.951       .   S
O132      Cu136 1.951       .   S
O134      Cu136 1.951       .   S
N194       C195 1.540       .   A
C193       N194 1.540       .   A
N196       C197 1.540       .   A
C195       N196 1.540       .   A
C189       N190 1.540       .   A
N190       C191 1.540       .   A
C187       N192 1.540       .   A
C191       N192 1.540       .   A
C873       C878 1.540       .   A
C878       H882 1.140       .   S
C877       C878 1.540       .   A
C207       N208 1.540       .   A
N208       C209 1.540       .   A
C365       H370 1.140       .   S
C366       H371 1.140       .   S
C203       N204 1.540       .   A
C199       N204 1.540       .   A
N206       C207 1.540       .   A
C205       N206 1.540       .   A
C873       C874 1.540       .   A
N200       C201 1.540       .   A
C199       N200 1.540       .   A
C875       H880 1.140       .   S
C874       C875 1.540       .   A
C875       C876 1.540       .   A
N202       C203 1.540       .   A
C201       N202 1.540       .   A
C876       C877 1.540       .   A
C385       H390 1.140       .   S
C466       H471 1.140       .   S
C468       H472 1.140       .   S
O48         C55 1.251       .   A
O49         C54 1.250       .   A
C886       C887 1.540       .   A
C887       C888 1.540       .   A
C886       H891 1.140       .   S
C388       H392 1.140       .   S
C883       C888 1.540       .   A
C883       H889 1.140       .   S
C493       C498 1.540       .   A
O43         C53 1.250       .   A
O44         C54 1.250       .   A
C888       H892 1.140       .   S
O46         C56 1.250       .   A
O47         C56 1.250       .   A
C545       H550 1.140       .   S
C904       C905 1.540       .   A
C903       C904 1.540       .   A
C905       C906 1.540       .   A
C905       H910 1.140       .   S
C906       C907 1.540       .   A
C906       H911 1.140       .   S
C907       C908 1.540       .   A
C614       C615 1.540       .   A
C615       H620 1.140       .   S
C615       C616 1.540       .   A
C616       H621 1.140       .   S
C903       H909 1.140       .   S
C903       C908 1.540       .   A
C618       H622 1.140       .   S
C753       C754 1.540       .   A
C908       H912 1.140       .   S
C165       C754 1.539       .   S
C757       C209 1.539   1_556   S
C756       C757 1.540       .   A
C756       H761 1.140       .   S
C295       N296 1.540       .   A
N296       C297 1.540       .   A
C293       N294 1.540       .   A
C291       N292 1.540       .   A
N292       C293 1.540       .   A
N290       C291 1.540       .   A
C583       H589 1.140       .   S
C297       N298 1.540       .   A
N298       C299 1.540       .   A
C705       H710 1.140       .   S
C706       H711 1.140       .   S
C708       H712 1.140       .   S
C185       N186 1.540       .   A
N184       C185 1.540       .   A
C646       H651 1.140       .   S
O60         C70 1.250       .   A
O61         C70 1.250       .   A
C484        C70 1.539       .   S
C648       H652 1.140       .   S
Cu93       Cu94 2.630       .   S
O92        Cu94 1.951       .   S
O89        Cu94 1.951       .   S
O91        Cu94 1.951       .   S
C533       C538 1.540       .   A
C533       H539 1.140       .   S
C354       C355 1.540       .   A
C355       C356 1.540       .   A
C355       H360 1.140       .   S
C27        C354 1.540       .   S
C353       C354 1.540       .   A
C357       C179 1.540   1_455   S
C356       C357 1.540       .   A
C357       C358 1.540       .   A
C516       H521 1.140       .   S
C516       C517 1.540       .   A
C515       C516 1.540       .   A
C727       C728 1.540       .   A
C728       H732 1.140       .   S
C723       C728 1.540       .   A
C353       C358 1.540       .   A
C353       H359 1.140       .   S
C724       C725 1.540       .   A
C723       C724 1.540       .   A
C725       C726 1.540       .   A
C725       H730 1.140       .   S
C726       C727 1.540       .   A
C726       H731 1.140       .   S
C683       C688 1.540       .   A
C687       C688 1.540       .   A
C683       H689 1.140       .   S
C683       C684 1.540       .   A
C686       C687 1.540       .   A
C685       C686 1.540       .   A
C684       C685 1.540       .   A
C684       C138 1.540       .   S
C675       H680 1.140       .   S
C676       H681 1.140       .   S
C665       C666 1.540       .   A
C665       H670 1.140       .   S
Cu23       Cu24 2.630       .   S
C535       C536 1.540       .   A
C536       C537 1.540       .   A
C537       C538 1.540       .   A
C778       H782 1.140       .   S
C776       H781 1.140       .   S
C775       H780 1.140       .   S
C666       C667 1.540       .   A
C667       C217 1.539   1_556   S
C667       C668 1.540       .   A
C433       C438 1.540       .   A
C438       H442 1.140       .   S
C437       C438 1.540       .   A
C655       H660 1.140       .   S
O113       C123 1.250       .   A
C644       C123 1.539       .   S
C433       H439 1.140       .   S
C433       C434 1.540       .   A
O117       C126 1.250       .   A
O116       C126 1.250       .   A
O119       C124 1.250       .   A
C634       C124 1.539       .   S
O114       C124 1.250       .   A
O118       C125 1.251       .   A
O115       C125 1.250       .   A
C663       C668 1.540       .   A
C663       H669 1.140       .   S
C426       H431 1.140       .   S
C425       H430 1.140       .   S
C428       H432 1.140       .   S
C97        C554 1.540       .   S
O91         C96 1.250       .   A
O92         C95 1.250       .   A
C556       C557 1.540       .   A
C555       C556 1.540       .   A
C556       H561 1.140       .   S
C528       H532 1.140       .   S
C98        C584 1.540       .   S
O89         C98 1.250       .   A
C668       H672 1.140       .   S
C82        C544 1.540       .   S
C544       C545 1.540       .   A
C543       C544 1.540       .   A
C545       C546 1.540       .   A
C546       C547 1.540       .   A
C546       H551 1.140       .   S
C225       N226 1.540       .   A
N224       C225 1.540       .   A
C227       N228 1.540       .   A
N226       C227 1.540       .   A
C334       C221 1.539       .   S
C221       N222 1.540       .   A
N220       C221 1.540       .   A
C223       N228 1.540       .   A
C223       N224 1.540       .   A
O131       C140 1.250       .   A
O130       C140 1.250       .   A
O133       C138 1.250       .   A
O132       C139 1.251       .   A
O134       C137 1.250       .   A
C333       C338 1.540       .   A
C337       C338 1.540       .   A
C813       H819 1.140       .   S
C826       C827 1.540       .   A
C827       C255 1.440       .   S
C827       C828 1.540       .   A
C825       C826 1.540       .   A
C824       C825 1.540       .   A
C823       C824 1.540       .   A
C824       C189 1.440       .   S
C823       H829 1.140       .   S
C823       C828 1.540       .   A
Cu163     Cu164 2.630       .   S
O159      Cu164 1.951       .   S
O157      Cu163 1.951       .   S
O156      Cu163 1.951       .   S
O155      Cu163 1.951       .   S
O158      Cu163 1.951       .   S
C435       H440 1.140       .   S
C436       H441 1.140       .   S
C316       H321 1.140       .   S
C443       H449 1.140       .   S
C318       H322 1.140       .   S
C557       C558 1.540       .   A
C553       C558 1.540       .   A
C558       H562 1.140       .   S
C876       H881 1.140       .   S
C818       H822 1.140       .   S
C815       H820 1.140       .   S
O145      Cu150 1.951       .   S
O146      Cu150 1.951       .   S
O147      Cu150 1.951       .   S
C764       C167 1.539       .   S
C763       C764 1.540       .   A
C768       H772 1.140       .   S
C763       C768 1.540       .   A
C483       C484 1.540       .   A
C483       H489 1.140       .   S
O148      Cu150 1.951       .   S
C487       C173 1.539   1_565   S
C486       C487 1.540       .   A
C466       C467 1.540       .   A
C467       C468 1.540       .   A
C844       C845 1.540       .   A
C844       C201 1.440       .   S
C643       C648 1.540       .   A
C311       N312 1.540       .   A
N310       C311 1.540       .   A
C645       C646 1.540       .   A
C644       C645 1.540       .   A
C645       H650 1.140       .   S
C643       C644 1.540       .   A
C643       H649 1.140       .   S
C313       C314 1.540       .   A
C314        C12 1.539       .   S
C317       C318 1.540       .   A
C317       C169 1.539       .   S
C316       C317 1.540       .   A
C633       C634 1.540       .   A
C633       H639 1.140       .   S
C633       C638 1.540       .   A
C463       C464 1.540       .   A
C463       C468 1.540       .   A
C26        C387 1.540       .   S
C25        C374 1.540       .   S
C28        C367 1.540       .   S
C783       H789 1.140       .   S
C738       H742 1.140       .   S
C736       H741 1.140       .   S
C735       H740 1.140       .   S
C168       C784 1.539       .   S
O159       C168 1.250       .   A
O158       C168 1.250       .   A
C169       N174 1.540       .   A
C169       N170 1.540       .   A
O156       C166 1.250       .   A
C166       C774 1.539       .   S
O157       C167 1.250       .   A
O155       C165 1.250       .   A
C326       C327 1.540       .   A
C367       C368 1.540       .   A
C368       H372 1.140       .   S
C363       C368 1.540       .   A
C538       H542 1.140       .   S
C364       C365 1.540       .   A
C363       C364 1.540       .   A
C365       C366 1.540       .   A
C366       C367 1.540       .   A
C363       H369 1.140       .   S
O119      Cu122 1.951       .   S
O118      Cu122 1.951       .   S
O117      Cu122 1.951       .   S
Cu121     Cu122 2.630       .   S
C187       N188 1.540       .   A
C517       C187 1.540       .   S
C181       N186 1.540       .   A
C181       N182 1.540       .   A
C183       N184 1.540       .   A
N182       C183 1.540       .   A
C183       C814 1.440       .   S
C815       C816 1.540       .   A
C814       C815 1.540       .   A
N188       C189 1.540       .   A
C636       C637 1.540       .   A
C635       C636 1.540       .   A
C423       C424 1.540       .   A
C424       C425 1.540       .   A
C813       C818 1.540       .   A
C817       C818 1.540       .   A
C261       C817 1.440       .   S
C263       C347 1.539   1_655   S
C265       C417 1.540       .   S
C435       C436 1.540       .   A
C436       C437 1.540       .   A
C503       C508 1.540       .   A
C507       C508 1.540       .   A
C465       C466 1.540       .   A
C464       C465 1.540       .   A
C465       H470 1.140       .   S
C56        C464 1.539       .   S
O74        Cu79 1.951       .   S
O71        Cu79 1.951       .   S
O73        Cu79 1.951       .   S
O72        Cu79 1.951       .   S
C848       H852 1.140       .   S
C323       H329 1.140       .   S
C503       C504 1.540       .   A
C504        C69 1.539       .   S
C504       C505 1.540       .   A
C505       C506 1.540       .   A
C506       C507 1.540       .   A
C299       C507 1.539       .   S
O113      Cu121 1.951       .   S
O116      Cu121 1.951       .   S
O115      Cu121 1.951       .   S
O114      Cu121 1.951       .   S
C846       H851 1.140       .   S
C179       N180 1.540       .   A
C175       N180 1.540       .   A
C356       H361 1.140       .   S
C863       C868 1.540       .   A
C867       C868 1.540       .   A
C217       N218 1.540       .   A
N218       C219 1.540       .   A
C863       H869 1.140       .   S
C863       C864 1.540       .   A
C215       N216 1.540       .   A
C211       N216 1.540       .   A
N214       C215 1.540       .   A
C213       N214 1.540       .   A
C866       C867 1.540       .   A
C291       C867 1.441       .   S
C211       N212 1.540       .   A
N212       C213 1.540       .   A
C865       C866 1.540       .   A
C864       C865 1.540       .   A
C205       N210 1.540       .   A
C209       N210 1.540       .   A
C593       H599 1.140       .   S
C555       H560 1.140       .   S
C54        C434 1.539       .   S
C434       C435 1.540       .   A
C406       H411 1.140       .   S
C864       C215 1.441       .   S
C217       N222 1.540       .   A
O78         C81 1.250       .   A
C607       C213 1.539   1_565   S
O75         C84 1.250       .   A
O74         C84 1.250       .   A
O77         C82 1.250       .   A
O76         C83 1.251       .   A
O71         C81 1.250       .   A
C219       N220 1.540       .   A
C874       C219 1.440       .   S
O73         C83 1.250       .   A
O72         C82 1.250       .   A
C603       C608 1.540       .   A
C603       H609 1.140       .   S
C603       C604 1.540       .   A
C606       C607 1.540       .   A
C607       C608 1.540       .   A
C605       C606 1.540       .   A
C604       C605 1.540       .   A
C109       C604 1.539       .   S
O106       C109 1.250       .   A
C313       H319 1.140       .   S
C191       C437 1.539       .   S
O63         C68 1.250       .   A
O62         C69 1.251       .   A
O64         C67 1.250       .   A
C703       H709 1.140       .   S
C396       H401 1.140       .   S
C293       C657 1.539       .   S
C323       C324 1.540       .   A
C324       C325 1.540       .   A
C324        C11 1.539       .   S
C325       C326 1.540       .   A
C737       C738 1.540       .   A
C733       C738 1.540       .   A
C736       C737 1.540       .   A
C295       C737 1.540   1_554   S
C735       C736 1.540       .   A
C734       C735 1.540       .   A
C733       C734 1.540       .   A
C733       H739 1.140       .   S
C345       H350 1.140       .   S
C344       C345 1.540       .   A
O6          C13 1.251       .   A
C337        C13 1.539       .   S
O3          C13 1.250       .   A
O7          C12 1.250       .   A
O2          C12 1.250       .   A
O1          C11 1.250       .   A
O8          C11 1.250       .   A
O5          C14 1.250       .   A
O4          C14 1.250       .   A
C344        C14 1.539       .   S
C137       C707 1.540       .   S
O31        Cu37 1.951       .   S
O30        Cu37 1.951       .   S
O32        Cu37 1.951       .   S
Cu37       Cu38 2.630       .   S
C413       H419 1.140       .   S
O33        Cu38 1.951       .   S
O35        Cu38 1.951       .   S
O34        Cu38 1.951       .   S
O36        Cu38 1.951       .   S
C139       C674 1.540       .   S
C783       C788 1.540       .   A
C783       C784 1.540       .   A
C423       C428 1.540       .   A
C427       C428 1.540       .   A
C786       C787 1.540       .   A
C785       C786 1.540       .   A
C787       C788 1.540       .   A
C784       C785 1.540       .   A
C785       H790 1.140       .   S
C788       H792 1.140       .   S
C426       C427 1.540       .   A
C425       C426 1.540       .   A
C704       C211 1.540       .   S
C251       N252 1.540       .   A
N250       C251 1.540       .   A
C255       N256 1.540       .   A
N256       C257 1.540       .   A
C253       N254 1.540       .   A
N254       C255 1.540       .   A
C253       N258 1.540       .   A
C257       N258 1.540       .   A
C335       H340 1.140       .   S
C678       H682 1.140       .   S
C514        C84 1.540       .   S
C557       C175 1.540       .   S
C554       C555 1.540       .   A
C553       C554 1.540       .   A
C553       H559 1.140       .   S
C703       C708 1.540       .   A
C703       C704 1.540       .   A
C377       C253 1.540       .   S
C175       N176 1.540       .   A
N176       C177 1.540       .   A
C173       N174 1.540       .   A
C816       H821 1.140       .   S
C171       N172 1.540       .   A
N172       C173 1.540       .   A
N170       C171 1.540       .   A
N178       C179 1.540       .   A
C177       N178 1.540       .   A
C813       C814 1.540       .   A
C816       C817 1.540       .   A
O4          Cu9 1.951       .   S
O3          Cu9 1.951       .   S
O2          Cu9 1.951       .   S
O1          Cu9 1.951       .   S
C446       H451 1.140       .   S
C776       C777 1.540       .   A
C777       C778 1.540       .   A
C775       C776 1.540       .   A
C774       C775 1.540       .   A
C673       C678 1.540       .   A
C677       C678 1.540       .   A
C673       H679 1.140       .   S
C673       C674 1.540       .   A
C676       C677 1.540       .   A
C675       C676 1.540       .   A
C674       C675 1.540       .   A
C53        C454 1.539       .   S
C583       C584 1.540       .   A
C584       C585 1.540       .   A
C585       C586 1.540       .   A
C586       C587 1.540       .   A
C587       C588 1.540       .   A
C794       C171 1.440       .   S
C377       C378 1.540       .   A
C373       C378 1.540       .   A
C376       C377 1.540       .   A
C375       C376 1.540       .   A
C374       C375 1.540       .   A
C373       C374 1.540       .   A
C373       H379 1.140       .   S
C588       H592 1.140       .   S
C197       N198 1.540       .   A
C193       N198 1.540       .   A
C637       C193 1.539   1_556   S
C527       C199 1.540       .   S
C527       C528 1.540       .   A
C473       H479 1.140       .   S
C313       C318 1.540       .   A
C523       C528 1.540       .   A
C297       C857 1.440       .   S
C513       C518 1.540       .   A
C517       C518 1.540       .   A
C455       C456 1.540       .   A
O99        C109 1.250       .   A
C454       C455 1.540       .   A
C513       C514 1.540       .   A
C514       C515 1.540       .   A
C856       C857 1.540       .   A
C855       C856 1.540       .   A
C856       H861 1.140       .   S
C854       C207 1.440       .   S
C854       C855 1.540       .   A
C853       C854 1.540       .   A
C855       H860 1.140       .   S
C853       H859 1.140       .   S
C387       C388 1.540       .   A
C383       C388 1.540       .   A
C386       H391 1.140       .   S
C416       C417 1.540       .   A
C415       C416 1.540       .   A
C637       C638 1.540       .   A
C638       H642 1.140       .   S
C634       C635 1.540       .   A
C583       C588 1.540       .   A
C417       C418 1.540       .   A
C413       C418 1.540       .   A
C845       C846 1.540       .   A
C707       C708 1.540       .   A
C336       C337 1.540       .   A
C335       C336 1.540       .   A
C334       C335 1.540       .   A
C333       C334 1.540       .   A
C706       C707 1.540       .   A
C705       C706 1.540       .   A
C704       C705 1.540       .   A
C383       C384 1.540       .   A
C414       C415 1.540       .   A
C413       C414 1.540       .   A
C386       C387 1.540       .   A
C385       C386 1.540       .   A
C384       C385 1.540       .   A
C797       C798 1.540       .   A
C793       C798 1.540       .   A
C794       C795 1.540       .   A
C795       C796 1.540       .   A
C793       C794 1.540       .   A
C796       C797 1.540       .   A
